 Abaqus/Standard 3DEXPERIENCE R2017x                  DATE 01-Jul-2025 TIME 18:18:48
 SUMMARY OF JOB INFORMATION:
 STEP  INC ATT SEVERE EQUIL TOTAL  TOTAL      STEP       INC OF       DOF    IF
               DISCON ITERS ITERS  TIME/    TIME/LPF    TIME/LPF    MONITOR RIKS
               ITERS               FREQ
   1     1   1U    0     4     4  0.000      0.000      10.00     
   1     1   2U    0     1     1  0.000      0.000      0.7130    
   1     1   3     0     1     1  0.464      0.464      0.4643    
   1     2   1     0     1     1  0.929      0.929      0.4643    
   1     3   1     0     1     1  1.39       1.39       0.4643    
   1     4   1     0     1     1  1.86       1.86       0.4643    
   1     5   1     0     1     1  2.32       2.32       0.4643    
   1     6   1     0     1     1  2.79       2.79       0.4643    
   1     7   1     0     1     1  3.25       3.25       0.4643    
   1     8   1     0     1     1  3.81       3.81       0.5598    
   1     9   1     0     1     1  4.37       4.37       0.5598    
   1    10   1     0     1     1  4.93       4.93       0.5598    
   1    11   1     0     1     1  5.49       5.49       0.5598    
   1    12   1     0     1     1  6.05       6.05       0.5598    
   1    13   1     0     1     1  6.61       6.61       0.5598    
   1    14   1     0     1     1  7.17       7.17       0.5598    
   1    15   1     0     1     1  7.73       7.73       0.5598    
   1    16   1     0     1     1  8.38       8.38       0.6536    
   1    17   1     0     1     1  9.04       9.04       0.6536    
   1    18   1     0     1     1  9.69       9.69       0.6536    
   1    19   1     0     1     1  10.3       10.3       0.6536    
   1    20   1     0     1     1  11.2       11.2       0.8083    
   1    21   1     0     1     1  12.0       12.0       0.8083    
   1    22   1     0     1     1  12.8       12.8       0.8083    
   1    23   1     0     1     1  13.8       13.8       0.9952    
   1    24   1     0     1     1  14.8       14.8       0.9952    
   1    25   1     0     1     1  15.8       15.8       0.9952    
   1    26   1     0     1     1  17.0       17.0       1.263     
   1    27   1     0     1     1  18.3       18.3       1.263     
   1    28   1     0     1     1  19.5       19.5       1.263     
   1    29   1     0     1     1  21.3       21.3       1.743     
   1    30   1     0     2     2  23.0       23.0       1.743     
   1    31   1     0     1     1  24.8       24.8       1.743     
   1    32   1     0     2     2  27.4       27.4       2.612     
   1    33   1     0     2     2  30.0       30.0       2.612     
   1    34   1     0     2     2  32.6       32.6       2.612     
   1    35   1     0     2     2  36.5       36.5       3.918     
   1    36   1     0     2     2  40.4       40.4       3.918     
   1    37   1     0     2     2  44.4       44.4       3.918     
   1    38   1     0     2     2  49.7       49.7       5.344     
   1    39   1     0     2     2  55.1       55.1       5.344     
   1    40   1     0     2     2  60.4       60.4       5.344     
   1    41   1     0     2     2  68.0       68.0       7.596     
   1    42   1     0     2     2  75.6       75.6       7.596     
   1    43   1     0     2     2  83.2       83.2       7.596     
   1    44   1     0     2     2  93.7       93.7       10.47     
   1    45   1     0     2     2  104.       104.       10.47     
   1    46   1     0     2     2  115.       115.       10.47     
   1    47   1     0     2     2  125.       125.       10.47     
   1    48   1     0     2     2  136.       136.       10.47     
   1    49   1     0     2     2  146.       146.       10.47     
   1    50   1     0     2     2  156.       156.       10.47     
   1    51   1     0     2     2  167.       167.       10.47     
   1    52   1     0     2     2  177.       177.       10.47     
   1    53   1     0     2     2  188.       188.       10.47     
   1    54   1     0     2     2  198.       198.       10.47     
   1    55   1     0     2     2  209.       209.       10.47     
   1    56   1     0     2     2  219.       219.       10.47     
   1    57   1     0     2     2  230.       230.       10.47     
   1    58   1     0     1     1  240.       240.       10.47     
   1    59   1     0     1     1  251.       251.       10.47     
   1    60   1     0     1     1  261.       261.       10.47     
   1    61   1     0     1     1  272.       272.       10.47     
   1    62   1     0     1     1  282.       282.       10.47     
   1    63   1     0     1     1  295.       295.       12.71     
   1    64   1     0     1     1  308.       308.       12.71     
   1    65   1     0     1     1  320.       320.       12.71     
   1    66   1     0     1     1  333.       333.       12.71     
   1    67   1     0     1     1  348.       348.       15.52     
   1    68   1     0     1     1  364.       364.       15.52     
   1    69   1     0     1     1  380.       380.       15.52     
   1    70   1     0     1     1  395.       395.       15.52     
   1    71   1     0     2     2  413.       413.       18.16     
   1    72   1     0     2     2  431.       431.       18.16     
   1    73   1     0     2     2  450.       450.       18.16     
   1    74   1     0     2     2  468.       468.       18.16     
   1    75   1     0     1     1  486.       486.       18.16     
   1    76   1     0     2     2  504.       504.       18.16     
   1    77   1     0     2     2  522.       522.       18.16     
   1    78   1     0     2     2  540.       540.       18.16     
   1    79   1     0     2     2  559.       559.       18.16     
   1    80   1     0     2     2  577.       577.       18.16     
   1    81   1     0     2     2  595.       595.       18.16     
   1    82   1     0     2     2  613.       613.       18.16     
   1    83   1     0     1     1  631.       631.       18.16     
   1    84   1     0     2     2  649.       649.       18.16     
   1    85   1     0     2     2  667.       667.       18.16     
   1    86   1     0     2     2  686.       686.       18.16     
   1    87   1     0     2     2  704.       704.       18.16     
   1    88   1     0     2     2  722.       722.       18.16     
   1    89   1     0     2     2  740.       740.       18.16     
   1    90   1     0     1     1  758.       758.       18.16     
   1    91   1     0     1     1  776.       776.       18.16     
   1    92   1     0     1     1  795.       795.       18.16     
   1    93   1     0     1     1  813.       813.       18.16     
   1    94   1     0     1     1  833.       833.       20.49     
   1    95   1     0     1     1  854.       854.       20.49     
   1    96   1     0     1     1  874.       874.       20.49     
   1    97   1     0     1     1  895.       895.       20.49     
   1    98   1     0     1     1  915.       915.       20.49     
   1    99   1     0     2     2  939.       939.       23.87     
   1   100   1     0     1     1  963.       963.       23.87     
   1   101   1     0     1     1  987.       987.       23.87     
   1   102   1     0     1     1  1.01e+003  1.01e+003  23.87     
   1   103   1     0     1     1  1.03e+003  1.03e+003  23.87     
   1   104   1     0     1     1  1.06e+003  1.06e+003  23.87     
   1   105   1     0     1     1  1.08e+003  1.08e+003  23.87     
   1   106   1     0     1     1  1.11e+003  1.11e+003  27.07     
   1   107   1     0     1     1  1.14e+003  1.14e+003  27.07     
   1   108   1     0     1     1  1.16e+003  1.16e+003  27.07     
   1   109   1     0     1     1  1.19e+003  1.19e+003  27.07     
   1   110   1     0     1     1  1.22e+003  1.22e+003  30.34     
   1   111   1     0     1     1  1.25e+003  1.25e+003  30.34     
   1   112   1     0     1     1  1.28e+003  1.28e+003  30.34     
   1   113   1     0     1     1  1.31e+003  1.31e+003  30.34     
   1   114   1     0     1     1  1.35e+003  1.35e+003  37.18     
   1   115   1     0     1     1  1.39e+003  1.39e+003  37.18     
   1   116   1     0     1     1  1.42e+003  1.42e+003  37.18     
   1   117   1     0     1     1  1.47e+003  1.47e+003  47.41     
   1   118   1     0     1     1  1.52e+003  1.52e+003  47.41     
   1   119   1     0     1     1  1.57e+003  1.57e+003  47.41     
   1   120   1     0     1     1  1.63e+003  1.63e+003  66.75     
   1   121   1     0     1     1  1.70e+003  1.70e+003  66.75     
   1   122   1     0     1     1  1.77e+003  1.77e+003  66.75     
   1   123   1     0     1     1  1.87e+003  1.87e+003  100.0     
   1   124   1     0     1     1  1.97e+003  1.97e+003  100.0     
   1   125   1     0     1     1  2.07e+003  2.07e+003  100.0     
   1   126   1     0     1     1  2.17e+003  2.17e+003  100.0     
   1   127   1     0     1     1  2.27e+003  2.27e+003  100.0     
   1   128   1     0     1     1  2.37e+003  2.37e+003  100.0     
   1   129   1     0     1     1  2.47e+003  2.47e+003  100.0     
   1   130   1     0     1     1  2.57e+003  2.57e+003  100.0     
   1   131   1     0     1     1  2.67e+003  2.67e+003  100.0     
   1   132   1     0     1     1  2.77e+003  2.77e+003  100.0     
   1   133   1     0     1     1  2.87e+003  2.87e+003  100.0     
   1   134   1     0     1     1  2.97e+003  2.97e+003  100.0     
   1   135   1     0     1     1  3.07e+003  3.07e+003  100.0     
   1   136   1     0     1     1  3.17e+003  3.17e+003  100.0     
   1   137   1     0     1     1  3.27e+003  3.27e+003  100.0     
   1   138   1     0     1     1  3.37e+003  3.37e+003  100.0     
   1   139   1     0     1     1  3.47e+003  3.47e+003  100.0     
   1   140   1     0     1     1  3.57e+003  3.57e+003  100.0     
   1   141   1     0     1     1  3.67e+003  3.67e+003  100.0     
   1   142   1     0     1     1  3.77e+003  3.77e+003  100.0     
   1   143   1     0     1     1  3.87e+003  3.87e+003  100.0     
   1   144   1     0     1     1  3.97e+003  3.97e+003  100.0     
   1   145   1     0     1     1  4.07e+003  4.07e+003  100.0     
   1   146   1     0     1     1  4.17e+003  4.17e+003  100.0     
   1   147   1     0     1     1  4.27e+003  4.27e+003  100.0     
   1   148   1     0     1     1  4.37e+003  4.37e+003  100.0     
   1   149   1     0     1     1  4.47e+003  4.47e+003  100.0     
   1   150   1     0     1     1  4.57e+003  4.57e+003  100.0     
   1   151   1     0     1     1  4.67e+003  4.67e+003  100.0     
   1   152   1     0     1     1  4.77e+003  4.77e+003  100.0     
   1   153   1     0     1     1  4.87e+003  4.87e+003  100.0     
   1   154   1     0     1     1  4.97e+003  4.97e+003  100.0     
   1   155   1     0     1     1  5.00e+003  5.00e+003  34.04     
                          
 THE ANALYSIS HAS COMPLETED SUCCESSFULLY
