*Heading
** Job name: FinalJOB Model name: Model-1
** Generated by: Abaqus/CAE 2017
*Preprint, echo=NO, model=NO, history=NO, contact=NO
**
** PARTS
**
*Part, name=GJSlim
*End Part
**  
**
** ASSEMBLY
**
*Assembly, name=Assembly
**  
*Instance, name=GJSlim-1, part=GJSlim
*Node
      1, -0.899999976,           0.,  0.200000003
      2, -0.899999976, -0.200000003,  0.200000003
      3, -0.899999976, -0.200000003,           0.
      4, -0.899999976,           0.,           0.
      5,  -1.10000002, -0.200000003,  0.200000003
      6,  -1.10000002, -0.200000003,           0.
      7,  -1.10000002,           0.,           0.
      8,  -1.10000002,           0.,  0.200000003
      9,           1.,  0.200000003,  0.200000003
     10,           1.,  0.200000003,           0.
     11,  0.100000001,  0.200000003,           0.
     12,  0.100000001,  0.200000003,  0.200000003
     13, -0.100000001,  0.200000003,           0.
     14, -0.100000001,  0.200000003,  0.200000003
     15,  -1.10000002,  0.200000003,  0.200000003
     16,  -1.10000002,  0.200000003,           0.
     17,           1.,           0.,           0.
     18,  0.800000012,           0.,           0.
     19,  0.800000012,           0.,  0.200000003
     20,           1.,           0.,  0.200000003
** ... 4905 like lines cut
*Element, type=DC3D20
 1,   56,  329,  926,  311,    1,   29,  293,   40, 1379, 1378, 1377, 1376, 1380, 1381, 1382,
    1383, 1385, 1384, 1386, 1387
 2,  329,  330,  927,  926,   29,   30,  294,  293, 1390, 1389, 1388, 1378, 1391, 1392, 1393,
    1381, 1384, 1394, 1395, 1386
 3,  330,  331,  928,  927,   30,   31,  295,  294, 1398, 1397, 1396, 1389, 1399, 1400, 1401,
    1392, 1394, 1402, 1403, 1395
 4,  331,   62,  320,  928,   31,    2,   32,  295, 1406, 1405, 1404, 1397, 1407, 1408, 1409,
    1400, 1402, 1410, 1411, 1403
 5,  311,  926,  929,  312,   40,  293,  296,   39, 1377, 1414, 1413, 1412, 1382, 1415, 1416,
    1417, 1387, 1386, 1418, 1419
 6,  926,  927,  930,  929,  293,  294,  297,  296, 1388, 1421, 1420, 1414, 1393, 1422, 1423,
    1415, 1386, 1395, 1424, 1418
 7,  927,  928,  931,  930,  294,  295,  298,  297, 1396, 1426, 1425, 1421, 1401, 1427, 1428,
    1422, 1395, 1403, 1429, 1424
 8,  928,  320,  321,  931,  295,   32,   33,  298, 1404, 1431, 1430, 1426, 1409, 1432, 1433,
    1427, 1403, 1411, 1434, 1429
 9,  312,  929,  932,  313,   39,  296,  299,   38, 1413, 1437, 1436, 1435, 1416, 1438, 1439,
    1440, 1419, 1418, 1441, 1442
10,  929,  930,  933,  932,  296,  297,  300,  299, 1420, 1444, 1443, 1437, 1423, 1445, 1446,
    1438, 1418, 1424, 1447, 1441
** ... 1708 like lines cut
*Nset, nset=Set-1, generate
    1,  4925,     1
*Elset, elset=Set-1, generate
   1,  864,    1
** Section: Section1
*Solid Section, elset=Set-1, material=GJSlim
,
*End Instance
**  
*Nset, nset=_PickedSet5, internal, instance=GJSlim-1, generate
    1,  4925,     1
*Elset, elset=_PickedSet5, internal, instance=GJSlim-1, generate
   1,  864,    1
*Elset, elset=_Surf-1_S3, internal, instance=GJSlim-1
   1,   2,   3,   4,  17,  18,  19,  20,  33,  34,  35,  36,  49,  50,  51,  52
  65,  66,  67,  68, 233, 234, 235, 236, 401, 402, 403, 404, 569, 570, 571, 572
 737, 738, 739, 740, 753, 754, 755, 756, 769, 770, 771, 772, 785, 786, 787, 788
 801, 802, 803, 804, 817, 818, 819, 820, 833, 834, 835, 836, 849, 850, 851, 852
*Elset, elset=_Surf-1_S1, internal, instance=GJSlim-1
  49,  50,  51,  52,  53,  54,  55,  56,  57,  58,  59,  60,  61,  62,  63,  64
 585, 586, 587, 588, 589, 590, 591, 592, 593, 594, 595, 596, 597, 598, 599, 600
 601, 602, 603, 604, 605, 606, 607, 608, 609, 610, 611, 612, 613, 614, 615, 616
 617, 618, 619, 620, 621, 622, 623, 624, 625, 626, 627, 628, 629, 630, 631, 632
 633, 634, 635, 636, 637, 638, 639, 640, 641, 642, 643, 644, 645, 646, 647, 648
 649, 650, 651, 652, 653, 654, 655, 656, 657, 658, 659, 660, 661, 662, 663, 664
 665, 666, 667, 668, 669, 670, 671, 672, 673, 674, 675, 676, 677, 678, 679, 680
 681, 682, 683, 684, 685, 686, 687, 688, 689, 690, 691, 692, 693, 694, 695, 696
 697, 698, 699, 700, 701, 702, 703, 704, 705, 706, 707, 708, 709, 710, 711, 712
 713, 714, 715, 716, 717, 718, 719, 720, 785, 786, 787, 788, 789, 790, 791, 792
 793, 794, 795, 796, 797, 798, 799, 800
*Elset, elset=_Surf-1_S5, internal, instance=GJSlim-1
  13,  14,  15,  16,  29,  30,  31,  32,  45,  46,  47,  48,  61,  62,  63,  64
 229, 230, 231, 232, 397, 398, 399, 400, 565, 566, 567, 568, 733, 734, 735, 736
 749, 750, 751, 752, 765, 766, 767, 768, 781, 782, 783, 784, 797, 798, 799, 800
 813, 814, 815, 816, 829, 830, 831, 832, 845, 846, 847, 848, 861, 862, 863, 864
*Elset, elset=_Surf-1_S6, internal, instance=GJSlim-1
  65,  69,  73,  77,  81,  85,  89,  93,  97, 101, 105, 109, 113, 117, 121, 125
 129, 133, 137, 141, 145, 149, 153, 157, 161, 165, 169, 173, 177, 181, 185, 189
 193, 197, 201, 205, 209, 213, 217, 221, 225, 229, 233, 237, 241, 245, 249, 253
 257, 261, 265, 269, 273, 277, 281, 285, 289, 293, 297, 301, 305, 309, 313, 317
 321, 325, 329, 333, 337, 341, 345, 349, 353, 357, 361, 365, 369, 373, 377, 381
 385, 389, 393, 397, 401, 405, 409, 413, 417, 421, 425, 429, 433, 437, 441, 445
 449, 453, 457, 461, 465, 469, 473, 477, 481, 485, 489, 493, 497, 501, 505, 509
 513, 517, 521, 525, 529, 533, 537, 541, 545, 549, 553, 557, 561, 565, 569, 573
 577, 581, 585, 589, 593, 597, 601, 605, 609, 613, 617, 621, 625, 629, 633, 637
 641, 645, 649, 653, 657, 661, 665, 669, 673, 677, 681, 685, 689, 693, 697, 701
 705, 709, 713, 717, 721, 725, 729, 733, 801, 805, 809, 813, 817, 821, 825, 829
 833, 837, 841, 845, 849, 853, 857, 861
*Elset, elset=_Surf-1_S2, internal, instance=GJSlim-1
   1,   2,   3,   4,   5,   6,   7,   8,   9,  10,  11,  12,  13,  14,  15,  16
  65,  66,  67,  68,  69,  70,  71,  72,  73,  74,  75,  76,  77,  78,  79,  80
  81,  82,  83,  84,  85,  86,  87,  88,  89,  90,  91,  92,  93,  94,  95,  96
  97,  98,  99, 100, 101, 102, 103, 104, 105, 106, 107, 108, 109, 110, 111, 112
 113, 114, 115, 116, 117, 118, 119, 120, 121, 122, 123, 124, 125, 126, 127, 128
 129, 130, 131, 132, 133, 134, 135, 136, 153, 154, 155, 156, 157, 158, 159, 160
 161, 162, 163, 164, 165, 166, 167, 168, 169, 170, 171, 172, 173, 174, 175, 176
 177, 178, 179, 180, 181, 182, 183, 184, 185, 186, 187, 188, 189, 190, 191, 192
 193, 194, 195, 196, 197, 198, 199, 200, 201, 202, 203, 204, 205, 206, 207, 208
 209, 210, 211, 212, 213, 214, 215, 216, 217, 218, 219, 220, 221, 222, 223, 224
 225, 226, 227, 228, 229, 230, 231, 232, 737, 738, 739, 740, 741, 742, 743, 744
 745, 746, 747, 748, 749, 750, 751, 752, 801, 802, 803, 804, 805, 806, 807, 808
 809, 810, 811, 812, 813, 814, 815, 816
*Elset, elset=_Surf-1_S4, internal, instance=GJSlim-1, generate
   4,  864,    4
*Surface, type=ELEMENT, name=Surf-1
_Surf-1_S3, S3
_Surf-1_S1, S1
_Surf-1_S6, S6
_Surf-1_S2, S2
_Surf-1_S4, S4
_Surf-1_S5, S5
*End Assembly
** 
** MATERIALS
** 
*Material, name=GJSlim
*Conductivity
36.,  25.
34., 200.
31., 400.
28., 600.
25., 800.
22.,1000.
18.,1200.
16.,1300.
14.,1400.
*Density
7100.,
*Latent Heat
270.,1140.,1270.
*Specific Heat
 500.,  25.
 520., 100.
 550., 300.
 620., 500.
 750., 700.
 850., 900.
 930.,1100.
1000.,1200.
1200.,1300.
1100.,1400.
** 
** PREDEFINED FIELDS
** 
** Name: Predefined Field-1   Type: Temperature
*Initial Conditions, type=TEMPERATURE
_PickedSet5, 1500.
** ----------------------------------------------------------------
** 
** STEP: Step-1
** 
*Step, name=Step-1, nlgeom=NO, inc=5000
*Heat Transfer, end=PERIOD, deltmx=50.
10., 5000., 0.05, 100., 
** 
** INTERACTIONS
** 
** Interaction: Int-1
*Sfilm
Surf-1, F, 25., 1000.
** 
** OUTPUT REQUESTS
** 
*Restart, write, frequency=0
** 
** FIELD OUTPUT: F-Output-1
** 
*Output, field
*Node Output
NT, RFL
*Element Output, directions=YES
HFL, TEMP
*Output, history, frequency=0
*End Step
