1

   Abaqus 3DEXPERIENCE R2017x                                  Date 02-Jul-2025   Time 16:01:49
   For use by RWTH AACHEN UNIVERSITY under license from Dassault Systemes or its subsidiary.

                                                                                 
                                                                                 
 STEP    1     INCREMENT     1     STEP TIME    0.00    


                        S T E P       1     T R A N S I E N T   H E A T   T R A N S F E R


                                                                                          

     AUTOMATIC TIME CONTROL WITH -
          A SUGGESTED INITIAL TIME INCREMENT OF                 10.0    
          AND A TOTAL TIME PERIOD OF                           5.000E+03
          THE MINIMUM TIME INCREMENT ALLOWED IS                5.000E-02
          THE MAXIMUM TIME INCREMENT ALLOWED IS                 100.    

     THE SIZE OF THE TIME INCREMENT IS CONTROLLED BY -
          THE TEMPERATURE CHANGE PER INCREMENT NOT EXCEEDING            50.0    

 CONVERGENCE TOLERANCE PARAMETERS FOR HEAT FLUX
     CRITERION FOR RESIDUAL HEAT FLUX FOR A NONLINEAR PROBLEM          5.000E-03
     CRITERION FOR TEMP.    CORRECTION IN A NONLINEAR PROBLEM          1.000E-02
     INITIAL VALUE OF TIME AVERAGE HEAT FLUX                           1.000E-02
     AVERAGE HEAT FLUX IS TIME AVERAGE HEAT FLUX
     ALTERNATE CRIT. FOR RESIDUAL HEAT FLUX FOR A NONLINEAR PROBLEM    2.000E-02
     CRITERION FOR ZERO HEAT FLUX RELATIVE TO TIME AVRG. HEAT FLUX     1.000E-05
     CRITERION FOR RESIDUAL HEAT FLUX WHEN THERE IS ZERO FLUX          1.000E-05
     CRITERION FOR TEMP.    CORRECTION WHEN THERE IS ZERO FLUX         1.000E-03
     CRITERION FOR RESIDUAL HEAT FLUX FOR A LINEAR INCREMENT           1.000E-08
     FIELD CONVERSION RATIO                                             1.00    
     CRITERION FOR ZERO HEAT FLUX REL. TO TIME AVRG. MAX. HEAT FLUX    1.000E-05

     VOLUMETRIC STRAIN COMPATIBILITY TOLERANCE FOR HYBRID SOLIDS       1.000E-05
     AXIAL STRAIN COMPATIBILITY TOLERANCE FOR HYBRID BEAMS             1.000E-05
     TRANS. SHEAR STRAIN COMPATIBILITY TOLERANCE FOR HYBRID BEAMS      1.000E-05
     SOFT CONTACT CONSTRAINT COMPATIBILITY TOLERANCE FOR P>P0          5.000E-03
     SOFT CONTACT CONSTRAINT COMPATIBILITY TOLERANCE FOR P=0.0         0.100    
     CONTACT FORCE ERROR TOLERANCE FOR CONVERT SDI=YES                 1.00    
     DISPLACEMENT COMPATIBILITY TOLERANCE FOR DCOUP ELEMENTS           1.000E-05
     ROTATION COMPATIBILITY TOLERANCE FOR DCOUP ELEMENTS               1.000E-05

 TIME INCREMENTATION CONTROL PARAMETERS:
     FIRST EQUILIBRIUM ITERATION FOR CONSECUTIVE DIVERGENCE CHECK              4
     EQUILIBRIUM ITERATION AT WHICH LOG. CONVERGENCE RATE CHECK BEGINS         8
     EQUILIBRIUM ITERATION AFTER WHICH ALTERNATE RESIDUAL IS USED              9
     MAXIMUM EQUILIBRIUM ITERATIONS ALLOWED                                   16
     EQUILIBRIUM ITERATION COUNT FOR CUT-BACK IN NEXT INCREMENT               10
     MAXIMUM EQUILIB. ITERS IN TWO INCREMENTS FOR TIME INCREMENT INCREASE      4
     MAXIMUM ITERATIONS FOR SEVERE DISCONTINUITIES                            12
     MAXIMUM ATTEMPTS ALLOWED IN AN INCREMENT                                  5
     MAXIMUM DISCON. ITERS IN TWO INCREMENTS FOR TIME INCREMENT INCREASE       6
     MAXIMUM CONTACT AUGMENTATIONS FOR *SURFACE BEHAVIOR,AUGMENTED LAGRANGE   50
     CONSECUTIVE INCS MEETING TIME INTEG. TOL. FOR TIME INC. INCREASE          3
     CUT-BACK FACTOR AFTER DIVERGENCE                                 0.2500    
     CUT-BACK FACTOR FOR TOO SLOW CONVERGENCE                         0.5000    
     CUT-BACK FACTOR AFTER TOO MANY EQUILIBRIUM ITERATIONS            0.7500    
     CUT-BACK FACTOR AFTER TOO MANY SEVERE DISCONTINUITY ITERATIONS   0.2500    
     CUT-BACK FACTOR AFTER PROBLEMS IN ELEMENT ASSEMBLY               0.2500    
     INCREASE FACTOR AFTER TWO INCREMENTS THAT CONVERGE QUICKLY        1.500    
     MAX. TIME INCREMENT INCREASE FACTOR ALLOWED                       1.500    
     MAX. TIME INCREMENT INCREASE FACTOR ALLOWED (DYNAMICS)            1.250    
     MAX. TIME INCREMENT INCREASE FACTOR ALLOWED (DIFFUSION)           2.000    
     MINIMUM TIME INCREMENT RATIO FOR EXTRAPOLATION TO OCCUR          0.1000    
     CUT-BACK FACTOR WHEN TIME INTEGRATION ACCURACY TOL. EXCEEDED     0.8500    
     MAX. RATIO OF TIME INTEG. MEASURE TO TOL. FOR TIME INC. INCREASE 0.7500    
     INCREASE FACTOR FOR TIME INCREMENT WHEN POSSIBLE                 0.8000    
     MIN. TIME INC. INCREASE FACTOR IN LINEAR TRANSIENT PROBLEMS      0.9500    
     MAX. RATIO OF TIME INCREMENT TO STABILITY LIMIT                   1.000    
     FRACTION OF STABILITY LIMIT FOR NEW TIME INCREMENT               0.9500    
     TIME INCREMENT INCREASE FACTOR BEFORE A TIME POINT                1.000    
     GLOBAL STABILIZATION CONTROL IS NOT USED

          PRINT OF INCREMENT NUMBER, TIME, ETC., EVERY    1  INCREMENTS

     THE MAXIMUM NUMBER OF INCREMENTS IN THIS STEP IS                    5000

     LINEAR EXTRAPOLATION WILL BE USED

     CHARACTERISTIC ELEMENT LENGTH     5.000E-02

     DETAILS REGARDING ACTUAL SOLUTION WAVEFRONT REQUESTED

     DETAILED OUTPUT OF DIAGNOSTICS TO DATABASE REQUESTED

     PRINT OF INCREMENT NUMBER, TIME, ETC., TO THE MESSAGE FILE EVERY     1  INCREMENTS

     COLLECTING MODEL CONSTRAINT INFORMATION FOR OVERCONSTRAINT CHECKS

     COLLECTING STEP CONSTRAINT INFORMATION FOR OVERCONSTRAINT CHECKS


  INCREMENT     1 STARTS. ATTEMPT NUMBER  1, TIME INCREMENT   10.0    

  NUMBER OF EQUATIONS =      4925     NUMBER OF FLOATING PT. OPERATIONS =  6.01E+07

     CHECK POINT   START OF SOLVER    

     CHECK POINT  END OF SOLVER       

       ELAPSED USER TIME (SEC)      =   0.0000    
       ELAPSED SYSTEM TIME (SEC)    =   0.0000    
       ELAPSED TOTAL CPU TIME (SEC) =   0.0000    
       ELAPSED WALLCLOCK TIME (SEC) =          0

               CONVERGENCE CHECKS FOR EQUILIBRIUM ITERATION     1


 AVERAGE HEAT FLUX                   289.       TIME AVG. HEAT FLUX    289.    
 LARGEST RESIDUAL HEAT FLUX          104.       AT NODE       3934   DOF 11
   INSTANCE: GJSLIM-1                                                                        
 LARGEST INCREMENT OF TEMP.         -562.       AT NODE         10   DOF 11
   INSTANCE: GJSLIM-1                                                                        
 LARGEST CORRECTION TO TEMP.        -562.       AT NODE         10   DOF 11
   INSTANCE: GJSLIM-1                                                                        
          HEAT FLUX EQUILIBRIUM NOT ACHIEVED WITHIN TOLERANCE.

  NUMBER OF EQUATIONS =      4925     NUMBER OF FLOATING PT. OPERATIONS =  6.01E+07

     CHECK POINT   START OF SOLVER    

     CHECK POINT  END OF SOLVER       

       ELAPSED USER TIME (SEC)      =  0.10000    
       ELAPSED SYSTEM TIME (SEC)    =   0.0000    
       ELAPSED TOTAL CPU TIME (SEC) =  0.10000    
       ELAPSED WALLCLOCK TIME (SEC) =          0

               CONVERGENCE CHECKS FOR EQUILIBRIUM ITERATION     2


 AVERAGE HEAT FLUX                   286.       TIME AVG. HEAT FLUX    286.    
 LARGEST RESIDUAL HEAT FLUX         -11.6       AT NODE       3934   DOF 11
   INSTANCE: GJSLIM-1                                                                        
 LARGEST INCREMENT OF TEMP.         -593.       AT NODE         10   DOF 11
   INSTANCE: GJSLIM-1                                                                        
 LARGEST CORRECTION TO TEMP.        -30.2       AT NODE         28   DOF 11
   INSTANCE: GJSLIM-1                                                                        
          HEAT FLUX EQUILIBRIUM NOT ACHIEVED WITHIN TOLERANCE.

  NUMBER OF EQUATIONS =      4925     NUMBER OF FLOATING PT. OPERATIONS =  6.01E+07

     CHECK POINT   START OF SOLVER    

     CHECK POINT  END OF SOLVER       

       ELAPSED USER TIME (SEC)      =   0.0000    
       ELAPSED SYSTEM TIME (SEC)    =   0.0000    
       ELAPSED TOTAL CPU TIME (SEC) =   0.0000    
       ELAPSED WALLCLOCK TIME (SEC) =          0

               CONVERGENCE CHECKS FOR EQUILIBRIUM ITERATION     3


 AVERAGE HEAT FLUX                   286.       TIME AVG. HEAT FLUX    286.    
 LARGEST RESIDUAL HEAT FLUX         -1.94       AT NODE       1407   DOF 11
   INSTANCE: GJSLIM-1                                                                        
 LARGEST INCREMENT OF TEMP.         -596.       AT NODE         10   DOF 11
   INSTANCE: GJSLIM-1                                                                        
 LARGEST CORRECTION TO TEMP.        -2.93       AT NODE         27   DOF 11
   INSTANCE: GJSLIM-1                                                                        
          HEAT FLUX EQUILIBRIUM NOT ACHIEVED WITHIN TOLERANCE.

  NUMBER OF EQUATIONS =      4925     NUMBER OF FLOATING PT. OPERATIONS =  6.01E+07

     CHECK POINT   START OF SOLVER    

     CHECK POINT  END OF SOLVER       

       ELAPSED USER TIME (SEC)      =   0.0000    
       ELAPSED SYSTEM TIME (SEC)    =   0.0000    
       ELAPSED TOTAL CPU TIME (SEC) =   0.0000    
       ELAPSED WALLCLOCK TIME (SEC) =          0

               CONVERGENCE CHECKS FOR EQUILIBRIUM ITERATION     4


 AVERAGE HEAT FLUX                   286.       TIME AVG. HEAT FLUX    286.    
 LARGEST RESIDUAL HEAT FLUX        -0.431       AT NODE       4627   DOF 11
   INSTANCE: GJSLIM-1                                                                        
 LARGEST INCREMENT OF TEMP.         -596.       AT NODE         10   DOF 11
   INSTANCE: GJSLIM-1                                                                        
 LARGEST CORRECTION TO TEMP.       -0.523       AT NODE         27   DOF 11
   INSTANCE: GJSLIM-1                                                                        
          THE HEAT FLUX EQUILIBRIUM EQUATIONS HAVE CONVERGED

 MAXIMUM NON-PRESCRIBED INCREMENT IN TEMPERATURE IS   -596.    
 

 ***NOTE: THE TIME INTEGRATION ACCURACY TOLERANCE HAS BEEN EXCEEDED.


  INCREMENT     1 STARTS. ATTEMPT NUMBER  2, TIME INCREMENT  0.713    

  NUMBER OF EQUATIONS =      4925     NUMBER OF FLOATING PT. OPERATIONS =  6.01E+07

     CHECK POINT   START OF SOLVER    

     CHECK POINT  END OF SOLVER       

       ELAPSED USER TIME (SEC)      =   0.0000    
       ELAPSED SYSTEM TIME (SEC)    =   0.0000    
       ELAPSED TOTAL CPU TIME (SEC) =   0.0000    
       ELAPSED WALLCLOCK TIME (SEC) =          0

               CONVERGENCE CHECKS FOR EQUILIBRIUM ITERATION     1


 AVERAGE HEAT FLUX                   343.       TIME AVG. HEAT FLUX    343.    
 LARGEST RESIDUAL HEAT FLUX        -9.740E-12   AT NODE       2133   DOF 11
   INSTANCE: GJSLIM-1                                                                        
 LARGEST INCREMENT OF TEMP.         -65.3       AT NODE         28   DOF 11
   INSTANCE: GJSLIM-1                                                                        
 LARGEST CORRECTION TO TEMP.        -65.3       AT NODE         28   DOF 11
   INSTANCE: GJSLIM-1                                                                        
          THE HEAT FLUX EQUILIBRIUM RESPONSE WAS LINEAR IN THIS INCREMENT

 MAXIMUM NON-PRESCRIBED INCREMENT IN TEMPERATURE IS   -65.3    
 

 ***NOTE: THE TIME INTEGRATION ACCURACY TOLERANCE HAS BEEN EXCEEDED.


  INCREMENT     1 STARTS. ATTEMPT NUMBER  3, TIME INCREMENT  0.464    

  NUMBER OF EQUATIONS =      4925     NUMBER OF FLOATING PT. OPERATIONS =  6.01E+07

     CHECK POINT   START OF SOLVER    

     CHECK POINT  END OF SOLVER       

       ELAPSED USER TIME (SEC)      =   0.0000    
       ELAPSED SYSTEM TIME (SEC)    =   0.0000    
       ELAPSED TOTAL CPU TIME (SEC) =   0.0000    
       ELAPSED WALLCLOCK TIME (SEC) =          0

               CONVERGENCE CHECKS FOR EQUILIBRIUM ITERATION     1


 AVERAGE HEAT FLUX                   345.       TIME AVG. HEAT FLUX    345.    
 LARGEST RESIDUAL HEAT FLUX         1.106E-11   AT NODE       2466   DOF 11
   INSTANCE: GJSLIM-1                                                                        
 LARGEST INCREMENT OF TEMP.         -43.2       AT NODE         28   DOF 11
   INSTANCE: GJSLIM-1                                                                        
 LARGEST CORRECTION TO TEMP.        -43.2       AT NODE         28   DOF 11
   INSTANCE: GJSLIM-1                                                                        
          THE HEAT FLUX EQUILIBRIUM RESPONSE WAS LINEAR IN THIS INCREMENT

 MAXIMUM NON-PRESCRIBED INCREMENT IN TEMPERATURE IS   -43.2    

 ITERATION SUMMARY FOR THE INCREMENT:   1 TOTAL ITERATIONS, OF WHICH
   0 ARE SEVERE DISCONTINUITY ITERATIONS AND  1 ARE EQUILIBRIUM ITERATIONS.

 TIME INCREMENT COMPLETED  0.464    ,  FRACTION OF STEP COMPLETED  9.286E-05
 STEP TIME COMPLETED       0.464    ,  TOTAL TIME COMPLETED        0.464    


  INCREMENT     2 STARTS. ATTEMPT NUMBER  1, TIME INCREMENT  0.464    

  NUMBER OF EQUATIONS =      4925     NUMBER OF FLOATING PT. OPERATIONS =  6.01E+07

     CHECK POINT   START OF SOLVER    

     CHECK POINT  END OF SOLVER       

       ELAPSED USER TIME (SEC)      =   0.0000    
       ELAPSED SYSTEM TIME (SEC)    =   0.0000    
       ELAPSED TOTAL CPU TIME (SEC) =   0.0000    
       ELAPSED WALLCLOCK TIME (SEC) =          0

               CONVERGENCE CHECKS FOR EQUILIBRIUM ITERATION     1


 AVERAGE HEAT FLUX                   502.       TIME AVG. HEAT FLUX    423.    
 LARGEST RESIDUAL HEAT FLUX        -5.160E-12   AT NODE       4013   DOF 11
   INSTANCE: GJSLIM-1                                                                        
 LARGEST INCREMENT OF TEMP.         -41.8       AT NODE         28   DOF 11
   INSTANCE: GJSLIM-1                                                                        
 LARGEST CORRECTION TO TEMP.         1.41       AT NODE         28   DOF 11
   INSTANCE: GJSLIM-1                                                                        
          THE HEAT FLUX EQUILIBRIUM RESPONSE WAS LINEAR IN THIS INCREMENT

 MAXIMUM NON-PRESCRIBED INCREMENT IN TEMPERATURE IS   -41.8    

 ITERATION SUMMARY FOR THE INCREMENT:   1 TOTAL ITERATIONS, OF WHICH
   0 ARE SEVERE DISCONTINUITY ITERATIONS AND  1 ARE EQUILIBRIUM ITERATIONS.

 TIME INCREMENT COMPLETED  0.464    ,  FRACTION OF STEP COMPLETED  1.857E-04
 STEP TIME COMPLETED       0.929    ,  TOTAL TIME COMPLETED        0.929    


  INCREMENT     3 STARTS. ATTEMPT NUMBER  1, TIME INCREMENT  0.464    

  NUMBER OF EQUATIONS =      4925     NUMBER OF FLOATING PT. OPERATIONS =  6.01E+07

     CHECK POINT   START OF SOLVER    

     CHECK POINT  END OF SOLVER       

       ELAPSED USER TIME (SEC)      =   0.0000    
       ELAPSED SYSTEM TIME (SEC)    =   0.0000    
       ELAPSED TOTAL CPU TIME (SEC) =   0.0000    
       ELAPSED WALLCLOCK TIME (SEC) =          0

               CONVERGENCE CHECKS FOR EQUILIBRIUM ITERATION     1


 AVERAGE HEAT FLUX                   496.       TIME AVG. HEAT FLUX    447.    
 LARGEST RESIDUAL HEAT FLUX         4.244E-12   AT NODE       4346   DOF 11
   INSTANCE: GJSLIM-1                                                                        
 LARGEST INCREMENT OF TEMP.         -40.5       AT NODE         28   DOF 11
   INSTANCE: GJSLIM-1                                                                        
 LARGEST CORRECTION TO TEMP.         1.36       AT NODE         28   DOF 11
   INSTANCE: GJSLIM-1                                                                        
          THE HEAT FLUX EQUILIBRIUM RESPONSE WAS LINEAR IN THIS INCREMENT

 MAXIMUM NON-PRESCRIBED INCREMENT IN TEMPERATURE IS   -40.5    

 ITERATION SUMMARY FOR THE INCREMENT:   1 TOTAL ITERATIONS, OF WHICH
   0 ARE SEVERE DISCONTINUITY ITERATIONS AND  1 ARE EQUILIBRIUM ITERATIONS.

 TIME INCREMENT COMPLETED  0.464    ,  FRACTION OF STEP COMPLETED  2.786E-04
 STEP TIME COMPLETED        1.39    ,  TOTAL TIME COMPLETED         1.39    


  INCREMENT     4 STARTS. ATTEMPT NUMBER  1, TIME INCREMENT  0.464    

  NUMBER OF EQUATIONS =      4925     NUMBER OF FLOATING PT. OPERATIONS =  6.01E+07

     CHECK POINT   START OF SOLVER    

     CHECK POINT  END OF SOLVER       

       ELAPSED USER TIME (SEC)      =   0.0000    
       ELAPSED SYSTEM TIME (SEC)    =   0.0000    
       ELAPSED TOTAL CPU TIME (SEC) =   0.0000    
       ELAPSED WALLCLOCK TIME (SEC) =          0

               CONVERGENCE CHECKS FOR EQUILIBRIUM ITERATION     1


 AVERAGE HEAT FLUX                   490.       TIME AVG. HEAT FLUX    458.    
 LARGEST RESIDUAL HEAT FLUX        -0.228       AT NODE       4675   DOF 11
   INSTANCE: GJSLIM-1                                                                        
 LARGEST INCREMENT OF TEMP.         -39.0       AT NODE         28   DOF 11
   INSTANCE: GJSLIM-1                                                                        
 LARGEST CORRECTION TO TEMP.         1.44       AT NODE         28   DOF 11
   INSTANCE: GJSLIM-1                                                                        
 ESTIMATE OF TEMP.    CORRECTION   -4.450E-03
 HEAT FLUX EQUILIB. ACCEPTED BASED ON SMALL RESIDUAL AND ESTIMATED CORRECTION

 MAXIMUM NON-PRESCRIBED INCREMENT IN TEMPERATURE IS   -39.0    

 ITERATION SUMMARY FOR THE INCREMENT:   1 TOTAL ITERATIONS, OF WHICH
   0 ARE SEVERE DISCONTINUITY ITERATIONS AND  1 ARE EQUILIBRIUM ITERATIONS.

 TIME INCREMENT COMPLETED  0.464    ,  FRACTION OF STEP COMPLETED  3.714E-04
 STEP TIME COMPLETED        1.86    ,  TOTAL TIME COMPLETED         1.86    


  INCREMENT     5 STARTS. ATTEMPT NUMBER  1, TIME INCREMENT  0.464    

  NUMBER OF EQUATIONS =      4925     NUMBER OF FLOATING PT. OPERATIONS =  6.01E+07

     CHECK POINT   START OF SOLVER    

     CHECK POINT  END OF SOLVER       

       ELAPSED USER TIME (SEC)      =   0.0000    
       ELAPSED SYSTEM TIME (SEC)    =   0.0000    
       ELAPSED TOTAL CPU TIME (SEC) =   0.0000    
       ELAPSED WALLCLOCK TIME (SEC) =          0

               CONVERGENCE CHECKS FOR EQUILIBRIUM ITERATION     1


 AVERAGE HEAT FLUX                   484.       TIME AVG. HEAT FLUX    463.    
 LARGEST RESIDUAL HEAT FLUX        -0.313       AT NODE       1631   DOF 11
   INSTANCE: GJSLIM-1                                                                        
 LARGEST INCREMENT OF TEMP.         -36.8       AT NODE         28   DOF 11
   INSTANCE: GJSLIM-1                                                                        
 LARGEST CORRECTION TO TEMP.         2.20       AT NODE         25   DOF 11
   INSTANCE: GJSLIM-1                                                                        
 ESTIMATE OF TEMP.    CORRECTION   -9.614E-03
 HEAT FLUX EQUILIB. ACCEPTED BASED ON SMALL RESIDUAL AND ESTIMATED CORRECTION

 MAXIMUM NON-PRESCRIBED INCREMENT IN TEMPERATURE IS   -36.8    

 ITERATION SUMMARY FOR THE INCREMENT:   1 TOTAL ITERATIONS, OF WHICH
   0 ARE SEVERE DISCONTINUITY ITERATIONS AND  1 ARE EQUILIBRIUM ITERATIONS.

 TIME INCREMENT COMPLETED  0.464    ,  FRACTION OF STEP COMPLETED  4.643E-04
 STEP TIME COMPLETED        2.32    ,  TOTAL TIME COMPLETED         2.32    


  INCREMENT     6 STARTS. ATTEMPT NUMBER  1, TIME INCREMENT  0.464    

  NUMBER OF EQUATIONS =      4925     NUMBER OF FLOATING PT. OPERATIONS =  6.01E+07

     CHECK POINT   START OF SOLVER    

     CHECK POINT  END OF SOLVER       

       ELAPSED USER TIME (SEC)      =   0.0000    
       ELAPSED SYSTEM TIME (SEC)    =   0.0000    
       ELAPSED TOTAL CPU TIME (SEC) =   0.0000    
       ELAPSED WALLCLOCK TIME (SEC) =          0

               CONVERGENCE CHECKS FOR EQUILIBRIUM ITERATION     1


 AVERAGE HEAT FLUX                   479.       TIME AVG. HEAT FLUX    466.    
 LARGEST RESIDUAL HEAT FLUX        -0.513       AT NODE       1391   DOF 11
   INSTANCE: GJSLIM-1                                                                        
 LARGEST INCREMENT OF TEMP.         -34.9       AT NODE         10   DOF 11
   INSTANCE: GJSLIM-1                                                                        
 LARGEST CORRECTION TO TEMP.         1.99       AT NODE         28   DOF 11
   INSTANCE: GJSLIM-1                                                                        
 ESTIMATE OF TEMP.    CORRECTION   -1.480E-02
 HEAT FLUX EQUILIB. ACCEPTED BASED ON SMALL RESIDUAL AND ESTIMATED CORRECTION

 MAXIMUM NON-PRESCRIBED INCREMENT IN TEMPERATURE IS   -34.9    

 ITERATION SUMMARY FOR THE INCREMENT:   1 TOTAL ITERATIONS, OF WHICH
   0 ARE SEVERE DISCONTINUITY ITERATIONS AND  1 ARE EQUILIBRIUM ITERATIONS.

 TIME INCREMENT COMPLETED  0.464    ,  FRACTION OF STEP COMPLETED  5.571E-04
 STEP TIME COMPLETED        2.79    ,  TOTAL TIME COMPLETED         2.79    


  INCREMENT     7 STARTS. ATTEMPT NUMBER  1, TIME INCREMENT  0.464    

  NUMBER OF EQUATIONS =      4925     NUMBER OF FLOATING PT. OPERATIONS =  6.01E+07

     CHECK POINT   START OF SOLVER    

     CHECK POINT  END OF SOLVER       

       ELAPSED USER TIME (SEC)      =   0.0000    
       ELAPSED SYSTEM TIME (SEC)    =   0.0000    
       ELAPSED TOTAL CPU TIME (SEC) =   0.0000    
       ELAPSED WALLCLOCK TIME (SEC) =          0

               CONVERGENCE CHECKS FOR EQUILIBRIUM ITERATION     1


 AVERAGE HEAT FLUX                   473.       TIME AVG. HEAT FLUX    467.    
 LARGEST RESIDUAL HEAT FLUX        -0.762       AT NODE       1407   DOF 11
   INSTANCE: GJSLIM-1                                                                        
 LARGEST INCREMENT OF TEMP.         -33.2       AT NODE         10   DOF 11
   INSTANCE: GJSLIM-1                                                                        
 LARGEST CORRECTION TO TEMP.         1.68       AT NODE         28   DOF 11
   INSTANCE: GJSLIM-1                                                                        
 ESTIMATE OF TEMP.    CORRECTION   -1.978E-02
 HEAT FLUX EQUILIB. ACCEPTED BASED ON SMALL RESIDUAL AND ESTIMATED CORRECTION

 MAXIMUM NON-PRESCRIBED INCREMENT IN TEMPERATURE IS   -33.2    
          TIME INCREMENT MAY NOW INCREASE TO    0.560    

 ITERATION SUMMARY FOR THE INCREMENT:   1 TOTAL ITERATIONS, OF WHICH
   0 ARE SEVERE DISCONTINUITY ITERATIONS AND  1 ARE EQUILIBRIUM ITERATIONS.

 TIME INCREMENT COMPLETED  0.464    ,  FRACTION OF STEP COMPLETED  6.500E-04
 STEP TIME COMPLETED        3.25    ,  TOTAL TIME COMPLETED         3.25    


  INCREMENT     8 STARTS. ATTEMPT NUMBER  1, TIME INCREMENT  0.560    

  NUMBER OF EQUATIONS =      4925     NUMBER OF FLOATING PT. OPERATIONS =  6.01E+07

     CHECK POINT   START OF SOLVER    

     CHECK POINT  END OF SOLVER       

       ELAPSED USER TIME (SEC)      =   0.0000    
       ELAPSED SYSTEM TIME (SEC)    =   0.0000    
       ELAPSED TOTAL CPU TIME (SEC) =   0.0000    
       ELAPSED WALLCLOCK TIME (SEC) =          0

               CONVERGENCE CHECKS FOR EQUILIBRIUM ITERATION     1


 AVERAGE HEAT FLUX                   467.       TIME AVG. HEAT FLUX    467.    
 LARGEST RESIDUAL HEAT FLUX         -1.11       AT NODE       1407   DOF 11
   INSTANCE: GJSLIM-1                                                                        
 LARGEST INCREMENT OF TEMP.         -37.6       AT NODE         10   DOF 11
   INSTANCE: GJSLIM-1                                                                        
 LARGEST CORRECTION TO TEMP.         2.37       AT NODE         28   DOF 11
   INSTANCE: GJSLIM-1                                                                        
 ESTIMATE OF TEMP.    CORRECTION   -3.504E-02
 HEAT FLUX EQUILIB. ACCEPTED BASED ON SMALL RESIDUAL AND ESTIMATED CORRECTION

 MAXIMUM NON-PRESCRIBED INCREMENT IN TEMPERATURE IS   -37.6    

 ITERATION SUMMARY FOR THE INCREMENT:   1 TOTAL ITERATIONS, OF WHICH
   0 ARE SEVERE DISCONTINUITY ITERATIONS AND  1 ARE EQUILIBRIUM ITERATIONS.

 TIME INCREMENT COMPLETED  0.560    ,  FRACTION OF STEP COMPLETED  7.620E-04
 STEP TIME COMPLETED        3.81    ,  TOTAL TIME COMPLETED         3.81    


  INCREMENT     9 STARTS. ATTEMPT NUMBER  1, TIME INCREMENT  0.560    

  NUMBER OF EQUATIONS =      4925     NUMBER OF FLOATING PT. OPERATIONS =  6.01E+07

     CHECK POINT   START OF SOLVER    

     CHECK POINT  END OF SOLVER       

       ELAPSED USER TIME (SEC)      =   0.0000    
       ELAPSED SYSTEM TIME (SEC)    =   0.0000    
       ELAPSED TOTAL CPU TIME (SEC) =   0.0000    
       ELAPSED WALLCLOCK TIME (SEC) =          0

               CONVERGENCE CHECKS FOR EQUILIBRIUM ITERATION     1


 AVERAGE HEAT FLUX                   461.       TIME AVG. HEAT FLUX    466.    
 LARGEST RESIDUAL HEAT FLUX        -0.819       AT NODE       4776   DOF 11
   INSTANCE: GJSLIM-1                                                                        
 LARGEST INCREMENT OF TEMP.         -37.5       AT NODE         10   DOF 11
   INSTANCE: GJSLIM-1                                                                        
 LARGEST CORRECTION TO TEMP.         1.61       AT NODE         44   DOF 11
   INSTANCE: GJSLIM-1                                                                        
 ESTIMATE OF TEMP.    CORRECTION   -1.801E-02
 HEAT FLUX EQUILIB. ACCEPTED BASED ON SMALL RESIDUAL AND ESTIMATED CORRECTION

 MAXIMUM NON-PRESCRIBED INCREMENT IN TEMPERATURE IS   -37.5    

 ITERATION SUMMARY FOR THE INCREMENT:   1 TOTAL ITERATIONS, OF WHICH
   0 ARE SEVERE DISCONTINUITY ITERATIONS AND  1 ARE EQUILIBRIUM ITERATIONS.

 TIME INCREMENT COMPLETED  0.560    ,  FRACTION OF STEP COMPLETED  8.739E-04
 STEP TIME COMPLETED        4.37    ,  TOTAL TIME COMPLETED         4.37    


  INCREMENT    10 STARTS. ATTEMPT NUMBER  1, TIME INCREMENT  0.560    

  NUMBER OF EQUATIONS =      4925     NUMBER OF FLOATING PT. OPERATIONS =  6.01E+07

     CHECK POINT   START OF SOLVER    

     CHECK POINT  END OF SOLVER       

       ELAPSED USER TIME (SEC)      =   0.0000    
       ELAPSED SYSTEM TIME (SEC)    =   0.0000    
       ELAPSED TOTAL CPU TIME (SEC) =   0.0000    
       ELAPSED WALLCLOCK TIME (SEC) =          0

               CONVERGENCE CHECKS FOR EQUILIBRIUM ITERATION     1


 AVERAGE HEAT FLUX                   455.       TIME AVG. HEAT FLUX    465.    
 LARGEST RESIDUAL HEAT FLUX        -0.746       AT NODE       1626   DOF 11
   INSTANCE: GJSLIM-1                                                                        
 LARGEST INCREMENT OF TEMP.         -37.9       AT NODE         28   DOF 11
   INSTANCE: GJSLIM-1                                                                        
 LARGEST CORRECTION TO TEMP.         1.53       AT NODE         44   DOF 11
   INSTANCE: GJSLIM-1                                                                        
 ESTIMATE OF TEMP.    CORRECTION   -1.628E-02
 HEAT FLUX EQUILIB. ACCEPTED BASED ON SMALL RESIDUAL AND ESTIMATED CORRECTION

 MAXIMUM NON-PRESCRIBED INCREMENT IN TEMPERATURE IS   -37.9    

 ITERATION SUMMARY FOR THE INCREMENT:   1 TOTAL ITERATIONS, OF WHICH
   0 ARE SEVERE DISCONTINUITY ITERATIONS AND  1 ARE EQUILIBRIUM ITERATIONS.

 TIME INCREMENT COMPLETED  0.560    ,  FRACTION OF STEP COMPLETED  9.859E-04
 STEP TIME COMPLETED        4.93    ,  TOTAL TIME COMPLETED         4.93    


  INCREMENT    11 STARTS. ATTEMPT NUMBER  1, TIME INCREMENT  0.560    

  NUMBER OF EQUATIONS =      4925     NUMBER OF FLOATING PT. OPERATIONS =  6.01E+07

     CHECK POINT   START OF SOLVER    

     CHECK POINT  END OF SOLVER       

       ELAPSED USER TIME (SEC)      =   0.0000    
       ELAPSED SYSTEM TIME (SEC)    =   0.0000    
       ELAPSED TOTAL CPU TIME (SEC) =   0.0000    
       ELAPSED WALLCLOCK TIME (SEC) =          0

               CONVERGENCE CHECKS FOR EQUILIBRIUM ITERATION     1


 AVERAGE HEAT FLUX                   449.       TIME AVG. HEAT FLUX    464.    
 LARGEST RESIDUAL HEAT FLUX        -0.676       AT NODE       1626   DOF 11
   INSTANCE: GJSLIM-1                                                                        
 LARGEST INCREMENT OF TEMP.         -38.2       AT NODE         28   DOF 11
   INSTANCE: GJSLIM-1                                                                        
 LARGEST CORRECTION TO TEMP.         1.42       AT NODE         44   DOF 11
   INSTANCE: GJSLIM-1                                                                        
 ESTIMATE OF TEMP.    CORRECTION   -1.491E-02
 HEAT FLUX EQUILIB. ACCEPTED BASED ON SMALL RESIDUAL AND ESTIMATED CORRECTION

 MAXIMUM NON-PRESCRIBED INCREMENT IN TEMPERATURE IS   -38.2    

 ITERATION SUMMARY FOR THE INCREMENT:   1 TOTAL ITERATIONS, OF WHICH
   0 ARE SEVERE DISCONTINUITY ITERATIONS AND  1 ARE EQUILIBRIUM ITERATIONS.

 TIME INCREMENT COMPLETED  0.560    ,  FRACTION OF STEP COMPLETED  1.098E-03
 STEP TIME COMPLETED        5.49    ,  TOTAL TIME COMPLETED         5.49    


  INCREMENT    12 STARTS. ATTEMPT NUMBER  1, TIME INCREMENT  0.560    

  NUMBER OF EQUATIONS =      4925     NUMBER OF FLOATING PT. OPERATIONS =  6.01E+07

     CHECK POINT   START OF SOLVER    

     CHECK POINT  END OF SOLVER       

       ELAPSED USER TIME (SEC)      =  0.10000    
       ELAPSED SYSTEM TIME (SEC)    =   0.0000    
       ELAPSED TOTAL CPU TIME (SEC) =  0.10000    
       ELAPSED WALLCLOCK TIME (SEC) =          0

               CONVERGENCE CHECKS FOR EQUILIBRIUM ITERATION     1


 AVERAGE HEAT FLUX                   440.       TIME AVG. HEAT FLUX    462.    
 LARGEST RESIDUAL HEAT FLUX          1.04       AT NODE       4486   DOF 11
   INSTANCE: GJSLIM-1                                                                        
 LARGEST INCREMENT OF TEMP.         -38.3       AT NODE         25   DOF 11
   INSTANCE: GJSLIM-1                                                                        
 LARGEST CORRECTION TO TEMP.         1.11       AT NODE         43   DOF 11
   INSTANCE: GJSLIM-1                                                                        
 ESTIMATE OF TEMP.    CORRECTION    1.803E-02
 HEAT FLUX EQUILIB. ACCEPTED BASED ON SMALL RESIDUAL AND ESTIMATED CORRECTION

 MAXIMUM NON-PRESCRIBED INCREMENT IN TEMPERATURE IS   -38.3    

 ITERATION SUMMARY FOR THE INCREMENT:   1 TOTAL ITERATIONS, OF WHICH
   0 ARE SEVERE DISCONTINUITY ITERATIONS AND  1 ARE EQUILIBRIUM ITERATIONS.

 TIME INCREMENT COMPLETED  0.560    ,  FRACTION OF STEP COMPLETED  1.210E-03
 STEP TIME COMPLETED        6.05    ,  TOTAL TIME COMPLETED         6.05    


  INCREMENT    13 STARTS. ATTEMPT NUMBER  1, TIME INCREMENT  0.560    

  NUMBER OF EQUATIONS =      4925     NUMBER OF FLOATING PT. OPERATIONS =  6.01E+07

     CHECK POINT   START OF SOLVER    

     CHECK POINT  END OF SOLVER       

       ELAPSED USER TIME (SEC)      =   0.0000    
       ELAPSED SYSTEM TIME (SEC)    =   0.0000    
       ELAPSED TOTAL CPU TIME (SEC) =   0.0000    
       ELAPSED WALLCLOCK TIME (SEC) =          0

               CONVERGENCE CHECKS FOR EQUILIBRIUM ITERATION     1


 AVERAGE HEAT FLUX                   435.       TIME AVG. HEAT FLUX    460.    
 LARGEST RESIDUAL HEAT FLUX        -0.604       AT NODE       3934   DOF 11
   INSTANCE: GJSLIM-1                                                                        
 LARGEST INCREMENT OF TEMP.         -37.2       AT NODE         28   DOF 11
   INSTANCE: GJSLIM-1                                                                        
 LARGEST CORRECTION TO TEMP.         1.12       AT NODE          9   DOF 11
   INSTANCE: GJSLIM-1                                                                        
 ESTIMATE OF TEMP.    CORRECTION   -1.086E-02
 HEAT FLUX EQUILIB. ACCEPTED BASED ON SMALL RESIDUAL AND ESTIMATED CORRECTION

 MAXIMUM NON-PRESCRIBED INCREMENT IN TEMPERATURE IS   -37.2    

 ITERATION SUMMARY FOR THE INCREMENT:   1 TOTAL ITERATIONS, OF WHICH
   0 ARE SEVERE DISCONTINUITY ITERATIONS AND  1 ARE EQUILIBRIUM ITERATIONS.

 TIME INCREMENT COMPLETED  0.560    ,  FRACTION OF STEP COMPLETED  1.322E-03
 STEP TIME COMPLETED        6.61    ,  TOTAL TIME COMPLETED         6.61    


  INCREMENT    14 STARTS. ATTEMPT NUMBER  1, TIME INCREMENT  0.560    

  NUMBER OF EQUATIONS =      4925     NUMBER OF FLOATING PT. OPERATIONS =  6.01E+07

     CHECK POINT   START OF SOLVER    

     CHECK POINT  END OF SOLVER       

       ELAPSED USER TIME (SEC)      =   0.0000    
       ELAPSED SYSTEM TIME (SEC)    =   0.0000    
       ELAPSED TOTAL CPU TIME (SEC) =   0.0000    
       ELAPSED WALLCLOCK TIME (SEC) =          0

               CONVERGENCE CHECKS FOR EQUILIBRIUM ITERATION     1


 AVERAGE HEAT FLUX                   429.       TIME AVG. HEAT FLUX    457.    
 LARGEST RESIDUAL HEAT FLUX        -0.565       AT NODE       3934   DOF 11
   INSTANCE: GJSLIM-1                                                                        
 LARGEST INCREMENT OF TEMP.         -35.7       AT NODE         28   DOF 11
   INSTANCE: GJSLIM-1                                                                        
 LARGEST CORRECTION TO TEMP.         1.57       AT NODE          6   DOF 11
   INSTANCE: GJSLIM-1                                                                        
 ESTIMATE OF TEMP.    CORRECTION   -1.423E-02
 HEAT FLUX EQUILIB. ACCEPTED BASED ON SMALL RESIDUAL AND ESTIMATED CORRECTION

 MAXIMUM NON-PRESCRIBED INCREMENT IN TEMPERATURE IS   -35.7    

 ITERATION SUMMARY FOR THE INCREMENT:   1 TOTAL ITERATIONS, OF WHICH
   0 ARE SEVERE DISCONTINUITY ITERATIONS AND  1 ARE EQUILIBRIUM ITERATIONS.

 TIME INCREMENT COMPLETED  0.560    ,  FRACTION OF STEP COMPLETED  1.434E-03
 STEP TIME COMPLETED        7.17    ,  TOTAL TIME COMPLETED         7.17    


  INCREMENT    15 STARTS. ATTEMPT NUMBER  1, TIME INCREMENT  0.560    

  NUMBER OF EQUATIONS =      4925     NUMBER OF FLOATING PT. OPERATIONS =  6.01E+07

     CHECK POINT   START OF SOLVER    

     CHECK POINT  END OF SOLVER       

       ELAPSED USER TIME (SEC)      =   0.0000    
       ELAPSED SYSTEM TIME (SEC)    =   0.0000    
       ELAPSED TOTAL CPU TIME (SEC) =   0.0000    
       ELAPSED WALLCLOCK TIME (SEC) =          0

               CONVERGENCE CHECKS FOR EQUILIBRIUM ITERATION     1


 AVERAGE HEAT FLUX                   424.       TIME AVG. HEAT FLUX    455.    
 LARGEST RESIDUAL HEAT FLUX        -0.528       AT NODE       3934   DOF 11
   INSTANCE: GJSLIM-1                                                                        
 LARGEST INCREMENT OF TEMP.         -34.3       AT NODE         10   DOF 11
   INSTANCE: GJSLIM-1                                                                        
 LARGEST CORRECTION TO TEMP.         1.40       AT NODE         26   DOF 11
   INSTANCE: GJSLIM-1                                                                        
 ESTIMATE OF TEMP.    CORRECTION   -1.189E-02
 HEAT FLUX EQUILIB. ACCEPTED BASED ON SMALL RESIDUAL AND ESTIMATED CORRECTION

 MAXIMUM NON-PRESCRIBED INCREMENT IN TEMPERATURE IS   -34.3    
          TIME INCREMENT MAY NOW INCREASE TO    0.654    

 ITERATION SUMMARY FOR THE INCREMENT:   1 TOTAL ITERATIONS, OF WHICH
   0 ARE SEVERE DISCONTINUITY ITERATIONS AND  1 ARE EQUILIBRIUM ITERATIONS.

 TIME INCREMENT COMPLETED  0.560    ,  FRACTION OF STEP COMPLETED  1.546E-03
 STEP TIME COMPLETED        7.73    ,  TOTAL TIME COMPLETED         7.73    


  INCREMENT    16 STARTS. ATTEMPT NUMBER  1, TIME INCREMENT  0.654    

  NUMBER OF EQUATIONS =      4925     NUMBER OF FLOATING PT. OPERATIONS =  6.01E+07

     CHECK POINT   START OF SOLVER    

     CHECK POINT  END OF SOLVER       

       ELAPSED USER TIME (SEC)      =  0.10000    
       ELAPSED SYSTEM TIME (SEC)    =   0.0000    
       ELAPSED TOTAL CPU TIME (SEC) =  0.10000    
       ELAPSED WALLCLOCK TIME (SEC) =          0

               CONVERGENCE CHECKS FOR EQUILIBRIUM ITERATION     1


 AVERAGE HEAT FLUX                   418.       TIME AVG. HEAT FLUX    453.    
 LARGEST RESIDUAL HEAT FLUX        -0.669       AT NODE       3934   DOF 11
   INSTANCE: GJSLIM-1                                                                        
 LARGEST INCREMENT OF TEMP.         -38.2       AT NODE         10   DOF 11
   INSTANCE: GJSLIM-1                                                                        
 LARGEST CORRECTION TO TEMP.         1.80       AT NODE         25   DOF 11
   INSTANCE: GJSLIM-1                                                                        
 ESTIMATE OF TEMP.    CORRECTION   -1.724E-02
 HEAT FLUX EQUILIB. ACCEPTED BASED ON SMALL RESIDUAL AND ESTIMATED CORRECTION

 MAXIMUM NON-PRESCRIBED INCREMENT IN TEMPERATURE IS   -38.2    

 ITERATION SUMMARY FOR THE INCREMENT:   1 TOTAL ITERATIONS, OF WHICH
   0 ARE SEVERE DISCONTINUITY ITERATIONS AND  1 ARE EQUILIBRIUM ITERATIONS.

 TIME INCREMENT COMPLETED  0.654    ,  FRACTION OF STEP COMPLETED  1.676E-03
 STEP TIME COMPLETED        8.38    ,  TOTAL TIME COMPLETED         8.38    


  INCREMENT    17 STARTS. ATTEMPT NUMBER  1, TIME INCREMENT  0.654    

  NUMBER OF EQUATIONS =      4925     NUMBER OF FLOATING PT. OPERATIONS =  6.01E+07

     CHECK POINT   START OF SOLVER    

     CHECK POINT  END OF SOLVER       

       ELAPSED USER TIME (SEC)      =   0.0000    
       ELAPSED SYSTEM TIME (SEC)    =   0.0000    
       ELAPSED TOTAL CPU TIME (SEC) =   0.0000    
       ELAPSED WALLCLOCK TIME (SEC) =          0

               CONVERGENCE CHECKS FOR EQUILIBRIUM ITERATION     1


 AVERAGE HEAT FLUX                   412.       TIME AVG. HEAT FLUX    451.    
 LARGEST RESIDUAL HEAT FLUX        -0.619       AT NODE       3934   DOF 11
   INSTANCE: GJSLIM-1                                                                        
 LARGEST INCREMENT OF TEMP.         -36.2       AT NODE         10   DOF 11
   INSTANCE: GJSLIM-1                                                                        
 LARGEST CORRECTION TO TEMP.         2.02       AT NODE         28   DOF 11
   INSTANCE: GJSLIM-1                                                                        
 ESTIMATE OF TEMP.    CORRECTION   -1.823E-02
 HEAT FLUX EQUILIB. ACCEPTED BASED ON SMALL RESIDUAL AND ESTIMATED CORRECTION

 MAXIMUM NON-PRESCRIBED INCREMENT IN TEMPERATURE IS   -36.2    

 ITERATION SUMMARY FOR THE INCREMENT:   1 TOTAL ITERATIONS, OF WHICH
   0 ARE SEVERE DISCONTINUITY ITERATIONS AND  1 ARE EQUILIBRIUM ITERATIONS.

 TIME INCREMENT COMPLETED  0.654    ,  FRACTION OF STEP COMPLETED  1.807E-03
 STEP TIME COMPLETED        9.04    ,  TOTAL TIME COMPLETED         9.04    


  INCREMENT    18 STARTS. ATTEMPT NUMBER  1, TIME INCREMENT  0.654    

  NUMBER OF EQUATIONS =      4925     NUMBER OF FLOATING PT. OPERATIONS =  6.01E+07

     CHECK POINT   START OF SOLVER    

     CHECK POINT  END OF SOLVER       

       ELAPSED USER TIME (SEC)      =   0.0000    
       ELAPSED SYSTEM TIME (SEC)    =   0.0000    
       ELAPSED TOTAL CPU TIME (SEC) =   0.0000    
       ELAPSED WALLCLOCK TIME (SEC) =          0

               CONVERGENCE CHECKS FOR EQUILIBRIUM ITERATION     1


 AVERAGE HEAT FLUX                   407.       TIME AVG. HEAT FLUX    448.    
 LARGEST RESIDUAL HEAT FLUX        -0.575       AT NODE       3934   DOF 11
   INSTANCE: GJSLIM-1                                                                        
 LARGEST INCREMENT OF TEMP.         -34.2       AT NODE         10   DOF 11
   INSTANCE: GJSLIM-1                                                                        
 LARGEST CORRECTION TO TEMP.         2.01       AT NODE         28   DOF 11
   INSTANCE: GJSLIM-1                                                                        
 ESTIMATE OF TEMP.    CORRECTION   -1.754E-02
 HEAT FLUX EQUILIB. ACCEPTED BASED ON SMALL RESIDUAL AND ESTIMATED CORRECTION

 MAXIMUM NON-PRESCRIBED INCREMENT IN TEMPERATURE IS   -34.2    

 ITERATION SUMMARY FOR THE INCREMENT:   1 TOTAL ITERATIONS, OF WHICH
   0 ARE SEVERE DISCONTINUITY ITERATIONS AND  1 ARE EQUILIBRIUM ITERATIONS.

 TIME INCREMENT COMPLETED  0.654    ,  FRACTION OF STEP COMPLETED  1.938E-03
 STEP TIME COMPLETED        9.69    ,  TOTAL TIME COMPLETED         9.69    


  INCREMENT    19 STARTS. ATTEMPT NUMBER  1, TIME INCREMENT  0.654    

  NUMBER OF EQUATIONS =      4925     NUMBER OF FLOATING PT. OPERATIONS =  6.01E+07

     CHECK POINT   START OF SOLVER    

     CHECK POINT  END OF SOLVER       

       ELAPSED USER TIME (SEC)      =   0.0000    
       ELAPSED SYSTEM TIME (SEC)    =   0.0000    
       ELAPSED TOTAL CPU TIME (SEC) =   0.0000    
       ELAPSED WALLCLOCK TIME (SEC) =          0

               CONVERGENCE CHECKS FOR EQUILIBRIUM ITERATION     1


 AVERAGE HEAT FLUX                   401.       TIME AVG. HEAT FLUX    446.    
 LARGEST RESIDUAL HEAT FLUX        -0.535       AT NODE       3934   DOF 11
   INSTANCE: GJSLIM-1                                                                        
 LARGEST INCREMENT OF TEMP.         -32.3       AT NODE         10   DOF 11
   INSTANCE: GJSLIM-1                                                                        
 LARGEST CORRECTION TO TEMP.         1.86       AT NODE         28   DOF 11
   INSTANCE: GJSLIM-1                                                                        
 ESTIMATE OF TEMP.    CORRECTION   -1.512E-02
 HEAT FLUX EQUILIB. ACCEPTED BASED ON SMALL RESIDUAL AND ESTIMATED CORRECTION

 MAXIMUM NON-PRESCRIBED INCREMENT IN TEMPERATURE IS   -32.3    
          TIME INCREMENT MAY NOW INCREASE TO    0.808    

 ITERATION SUMMARY FOR THE INCREMENT:   1 TOTAL ITERATIONS, OF WHICH
   0 ARE SEVERE DISCONTINUITY ITERATIONS AND  1 ARE EQUILIBRIUM ITERATIONS.

 TIME INCREMENT COMPLETED  0.654    ,  FRACTION OF STEP COMPLETED  2.069E-03
 STEP TIME COMPLETED        10.3    ,  TOTAL TIME COMPLETED         10.3    


  INCREMENT    20 STARTS. ATTEMPT NUMBER  1, TIME INCREMENT  0.808    

  NUMBER OF EQUATIONS =      4925     NUMBER OF FLOATING PT. OPERATIONS =  6.01E+07

     CHECK POINT   START OF SOLVER    

     CHECK POINT  END OF SOLVER       

       ELAPSED USER TIME (SEC)      =   0.0000    
       ELAPSED SYSTEM TIME (SEC)    =   0.0000    
       ELAPSED TOTAL CPU TIME (SEC) =   0.0000    
       ELAPSED WALLCLOCK TIME (SEC) =          0

               CONVERGENCE CHECKS FOR EQUILIBRIUM ITERATION     1


 AVERAGE HEAT FLUX                   394.       TIME AVG. HEAT FLUX    443.    
 LARGEST RESIDUAL HEAT FLUX        -0.729       AT NODE       4446   DOF 11
   INSTANCE: GJSLIM-1                                                                        
 LARGEST INCREMENT OF TEMP.         -37.5       AT NODE         10   DOF 11
   INSTANCE: GJSLIM-1                                                                        
 LARGEST CORRECTION TO TEMP.         2.52       AT NODE         25   DOF 11
   INSTANCE: GJSLIM-1                                                                        
 ESTIMATE OF TEMP.    CORRECTION   -2.359E-02
 HEAT FLUX EQUILIB. ACCEPTED BASED ON SMALL RESIDUAL AND ESTIMATED CORRECTION

 MAXIMUM NON-PRESCRIBED INCREMENT IN TEMPERATURE IS   -37.5    

 ITERATION SUMMARY FOR THE INCREMENT:   1 TOTAL ITERATIONS, OF WHICH
   0 ARE SEVERE DISCONTINUITY ITERATIONS AND  1 ARE EQUILIBRIUM ITERATIONS.

 TIME INCREMENT COMPLETED  0.808    ,  FRACTION OF STEP COMPLETED  2.230E-03
 STEP TIME COMPLETED        11.2    ,  TOTAL TIME COMPLETED         11.2    


  INCREMENT    21 STARTS. ATTEMPT NUMBER  1, TIME INCREMENT  0.808    

  NUMBER OF EQUATIONS =      4925     NUMBER OF FLOATING PT. OPERATIONS =  6.01E+07

     CHECK POINT   START OF SOLVER    

     CHECK POINT  END OF SOLVER       

       ELAPSED USER TIME (SEC)      =   0.0000    
       ELAPSED SYSTEM TIME (SEC)    =   0.0000    
       ELAPSED TOTAL CPU TIME (SEC) =   0.0000    
       ELAPSED WALLCLOCK TIME (SEC) =          0

               CONVERGENCE CHECKS FOR EQUILIBRIUM ITERATION     1


 AVERAGE HEAT FLUX                   390.       TIME AVG. HEAT FLUX    441.    
 LARGEST RESIDUAL HEAT FLUX        -0.665       AT NODE       2934   DOF 11
   INSTANCE: GJSLIM-1                                                                        
 LARGEST INCREMENT OF TEMP.         -34.9       AT NODE         10   DOF 11
   INSTANCE: GJSLIM-1                                                                        
 LARGEST CORRECTION TO TEMP.         2.59       AT NODE         28   DOF 11
   INSTANCE: GJSLIM-1                                                                        
 ESTIMATE OF TEMP.    CORRECTION   -2.206E-02
 HEAT FLUX EQUILIB. ACCEPTED BASED ON SMALL RESIDUAL AND ESTIMATED CORRECTION

 MAXIMUM NON-PRESCRIBED INCREMENT IN TEMPERATURE IS   -34.9    

 ITERATION SUMMARY FOR THE INCREMENT:   1 TOTAL ITERATIONS, OF WHICH
   0 ARE SEVERE DISCONTINUITY ITERATIONS AND  1 ARE EQUILIBRIUM ITERATIONS.

 TIME INCREMENT COMPLETED  0.808    ,  FRACTION OF STEP COMPLETED  2.392E-03
 STEP TIME COMPLETED        12.0    ,  TOTAL TIME COMPLETED         12.0    


  INCREMENT    22 STARTS. ATTEMPT NUMBER  1, TIME INCREMENT  0.808    

  NUMBER OF EQUATIONS =      4925     NUMBER OF FLOATING PT. OPERATIONS =  6.01E+07

     CHECK POINT   START OF SOLVER    

     CHECK POINT  END OF SOLVER       

       ELAPSED USER TIME (SEC)      =   0.0000    
       ELAPSED SYSTEM TIME (SEC)    =   0.0000    
       ELAPSED TOTAL CPU TIME (SEC) =   0.0000    
       ELAPSED WALLCLOCK TIME (SEC) =          0

               CONVERGENCE CHECKS FOR EQUILIBRIUM ITERATION     1


 AVERAGE HEAT FLUX                   384.       TIME AVG. HEAT FLUX    438.    
 LARGEST RESIDUAL HEAT FLUX        -0.612       AT NODE       2934   DOF 11
   INSTANCE: GJSLIM-1                                                                        
 LARGEST INCREMENT OF TEMP.         -32.5       AT NODE         16   DOF 11
   INSTANCE: GJSLIM-1                                                                        
 LARGEST CORRECTION TO TEMP.         2.42       AT NODE         10   DOF 11
   INSTANCE: GJSLIM-1                                                                        
 ESTIMATE OF TEMP.    CORRECTION   -1.790E-02
 HEAT FLUX EQUILIB. ACCEPTED BASED ON SMALL RESIDUAL AND ESTIMATED CORRECTION

 MAXIMUM NON-PRESCRIBED INCREMENT IN TEMPERATURE IS   -32.5    
          TIME INCREMENT MAY NOW INCREASE TO    0.995    

 ITERATION SUMMARY FOR THE INCREMENT:   1 TOTAL ITERATIONS, OF WHICH
   0 ARE SEVERE DISCONTINUITY ITERATIONS AND  1 ARE EQUILIBRIUM ITERATIONS.

 TIME INCREMENT COMPLETED  0.808    ,  FRACTION OF STEP COMPLETED  2.554E-03
 STEP TIME COMPLETED        12.8    ,  TOTAL TIME COMPLETED         12.8    


  INCREMENT    23 STARTS. ATTEMPT NUMBER  1, TIME INCREMENT  0.995    

  NUMBER OF EQUATIONS =      4925     NUMBER OF FLOATING PT. OPERATIONS =  6.01E+07

     CHECK POINT   START OF SOLVER    

     CHECK POINT  END OF SOLVER       

       ELAPSED USER TIME (SEC)      =   0.0000    
       ELAPSED SYSTEM TIME (SEC)    =   0.0000    
       ELAPSED TOTAL CPU TIME (SEC) =   0.0000    
       ELAPSED WALLCLOCK TIME (SEC) =          0

               CONVERGENCE CHECKS FOR EQUILIBRIUM ITERATION     1


 AVERAGE HEAT FLUX                   375.       TIME AVG. HEAT FLUX    435.    
 LARGEST RESIDUAL HEAT FLUX          1.24       AT NODE       4115   DOF 11
   INSTANCE: GJSLIM-1                                                                        
 LARGEST INCREMENT OF TEMP.         -36.6       AT NODE         16   DOF 11
   INSTANCE: GJSLIM-1                                                                        
 LARGEST CORRECTION TO TEMP.         3.39       AT NODE         10   DOF 11
   INSTANCE: GJSLIM-1                                                                        
 ESTIMATE OF TEMP.    CORRECTION    4.230E-02
 HEAT FLUX EQUILIB. ACCEPTED BASED ON SMALL RESIDUAL AND ESTIMATED CORRECTION

 MAXIMUM NON-PRESCRIBED INCREMENT IN TEMPERATURE IS   -36.6    

 ITERATION SUMMARY FOR THE INCREMENT:   1 TOTAL ITERATIONS, OF WHICH
   0 ARE SEVERE DISCONTINUITY ITERATIONS AND  1 ARE EQUILIBRIUM ITERATIONS.

 TIME INCREMENT COMPLETED  0.995    ,  FRACTION OF STEP COMPLETED  2.753E-03
 STEP TIME COMPLETED        13.8    ,  TOTAL TIME COMPLETED         13.8    


  INCREMENT    24 STARTS. ATTEMPT NUMBER  1, TIME INCREMENT  0.995    

  NUMBER OF EQUATIONS =      4925     NUMBER OF FLOATING PT. OPERATIONS =  6.01E+07

     CHECK POINT   START OF SOLVER    

     CHECK POINT  END OF SOLVER       

       ELAPSED USER TIME (SEC)      =   0.0000    
       ELAPSED SYSTEM TIME (SEC)    =   0.0000    
       ELAPSED TOTAL CPU TIME (SEC) =   0.0000    
       ELAPSED WALLCLOCK TIME (SEC) =          0

               CONVERGENCE CHECKS FOR EQUILIBRIUM ITERATION     1


 AVERAGE HEAT FLUX                   368.       TIME AVG. HEAT FLUX    432.    
 LARGEST RESIDUAL HEAT FLUX         -1.08       AT NODE       1073   DOF 11
   INSTANCE: GJSLIM-1                                                                        
 LARGEST INCREMENT OF TEMP.         -33.9       AT NODE         15   DOF 11
   INSTANCE: GJSLIM-1                                                                        
 LARGEST CORRECTION TO TEMP.         2.73       AT NODE         10   DOF 11
   INSTANCE: GJSLIM-1                                                                        
 ESTIMATE OF TEMP.    CORRECTION   -2.855E-02
 HEAT FLUX EQUILIB. ACCEPTED BASED ON SMALL RESIDUAL AND ESTIMATED CORRECTION

 MAXIMUM NON-PRESCRIBED INCREMENT IN TEMPERATURE IS   -33.9    

 ITERATION SUMMARY FOR THE INCREMENT:   1 TOTAL ITERATIONS, OF WHICH
   0 ARE SEVERE DISCONTINUITY ITERATIONS AND  1 ARE EQUILIBRIUM ITERATIONS.

 TIME INCREMENT COMPLETED  0.995    ,  FRACTION OF STEP COMPLETED  2.952E-03
 STEP TIME COMPLETED        14.8    ,  TOTAL TIME COMPLETED         14.8    


  INCREMENT    25 STARTS. ATTEMPT NUMBER  1, TIME INCREMENT  0.995    

  NUMBER OF EQUATIONS =      4925     NUMBER OF FLOATING PT. OPERATIONS =  6.01E+07

     CHECK POINT   START OF SOLVER    

     CHECK POINT  END OF SOLVER       

       ELAPSED USER TIME (SEC)      =   0.0000    
       ELAPSED SYSTEM TIME (SEC)    =   0.0000    
       ELAPSED TOTAL CPU TIME (SEC) =   0.0000    
       ELAPSED WALLCLOCK TIME (SEC) =          0

               CONVERGENCE CHECKS FOR EQUILIBRIUM ITERATION     1


 AVERAGE HEAT FLUX                   362.       TIME AVG. HEAT FLUX    430.    
 LARGEST RESIDUAL HEAT FLUX        -0.984       AT NODE       1324   DOF 11
   INSTANCE: GJSLIM-1                                                                        
 LARGEST INCREMENT OF TEMP.         -31.5       AT NODE         15   DOF 11
   INSTANCE: GJSLIM-1                                                                        
 LARGEST CORRECTION TO TEMP.         2.37       AT NODE          9   DOF 11
   INSTANCE: GJSLIM-1                                                                        
 ESTIMATE OF TEMP.    CORRECTION   -2.185E-02
 HEAT FLUX EQUILIB. ACCEPTED BASED ON SMALL RESIDUAL AND ESTIMATED CORRECTION

 MAXIMUM NON-PRESCRIBED INCREMENT IN TEMPERATURE IS   -31.5    
          TIME INCREMENT MAY NOW INCREASE TO     1.26    

 ITERATION SUMMARY FOR THE INCREMENT:   1 TOTAL ITERATIONS, OF WHICH
   0 ARE SEVERE DISCONTINUITY ITERATIONS AND  1 ARE EQUILIBRIUM ITERATIONS.

 TIME INCREMENT COMPLETED  0.995    ,  FRACTION OF STEP COMPLETED  3.151E-03
 STEP TIME COMPLETED        15.8    ,  TOTAL TIME COMPLETED         15.8    


  INCREMENT    26 STARTS. ATTEMPT NUMBER  1, TIME INCREMENT   1.26    

  NUMBER OF EQUATIONS =      4925     NUMBER OF FLOATING PT. OPERATIONS =  6.01E+07

     CHECK POINT   START OF SOLVER    

     CHECK POINT  END OF SOLVER       

       ELAPSED USER TIME (SEC)      =   0.0000    
       ELAPSED SYSTEM TIME (SEC)    =   0.0000    
       ELAPSED TOTAL CPU TIME (SEC) =   0.0000    
       ELAPSED WALLCLOCK TIME (SEC) =          0

               CONVERGENCE CHECKS FOR EQUILIBRIUM ITERATION     1


 AVERAGE HEAT FLUX                   353.       TIME AVG. HEAT FLUX    427.    
 LARGEST RESIDUAL HEAT FLUX         -1.57       AT NODE        955   DOF 11
   INSTANCE: GJSLIM-1                                                                        
 LARGEST INCREMENT OF TEMP.         -36.4       AT NODE         15   DOF 11
   INSTANCE: GJSLIM-1                                                                        
 LARGEST CORRECTION TO TEMP.         3.64       AT NODE          9   DOF 11
   INSTANCE: GJSLIM-1                                                                        
 ESTIMATE OF TEMP.    CORRECTION   -4.134E-02
 HEAT FLUX EQUILIB. ACCEPTED BASED ON SMALL RESIDUAL AND ESTIMATED CORRECTION

 MAXIMUM NON-PRESCRIBED INCREMENT IN TEMPERATURE IS   -36.4    

 ITERATION SUMMARY FOR THE INCREMENT:   1 TOTAL ITERATIONS, OF WHICH
   0 ARE SEVERE DISCONTINUITY ITERATIONS AND  1 ARE EQUILIBRIUM ITERATIONS.

 TIME INCREMENT COMPLETED   1.26    ,  FRACTION OF STEP COMPLETED  3.403E-03
 STEP TIME COMPLETED        17.0    ,  TOTAL TIME COMPLETED         17.0    


  INCREMENT    27 STARTS. ATTEMPT NUMBER  1, TIME INCREMENT   1.26    

  NUMBER OF EQUATIONS =      4925     NUMBER OF FLOATING PT. OPERATIONS =  6.01E+07

     CHECK POINT   START OF SOLVER    

     CHECK POINT  END OF SOLVER       

       ELAPSED USER TIME (SEC)      =   0.0000    
       ELAPSED SYSTEM TIME (SEC)    =   0.0000    
       ELAPSED TOTAL CPU TIME (SEC) =   0.0000    
       ELAPSED WALLCLOCK TIME (SEC) =          0

               CONVERGENCE CHECKS FOR EQUILIBRIUM ITERATION     1


 AVERAGE HEAT FLUX                   346.       TIME AVG. HEAT FLUX    424.    
 LARGEST RESIDUAL HEAT FLUX         -1.42       AT NODE       1073   DOF 11
   INSTANCE: GJSLIM-1                                                                        
 LARGEST INCREMENT OF TEMP.         -32.9       AT NODE         15   DOF 11
   INSTANCE: GJSLIM-1                                                                        
 LARGEST CORRECTION TO TEMP.         3.47       AT NODE          9   DOF 11
   INSTANCE: GJSLIM-1                                                                        
 ESTIMATE OF TEMP.    CORRECTION   -3.572E-02
 HEAT FLUX EQUILIB. ACCEPTED BASED ON SMALL RESIDUAL AND ESTIMATED CORRECTION

 MAXIMUM NON-PRESCRIBED INCREMENT IN TEMPERATURE IS   -32.9    

 ITERATION SUMMARY FOR THE INCREMENT:   1 TOTAL ITERATIONS, OF WHICH
   0 ARE SEVERE DISCONTINUITY ITERATIONS AND  1 ARE EQUILIBRIUM ITERATIONS.

 TIME INCREMENT COMPLETED   1.26    ,  FRACTION OF STEP COMPLETED  3.656E-03
 STEP TIME COMPLETED        18.3    ,  TOTAL TIME COMPLETED         18.3    


  INCREMENT    28 STARTS. ATTEMPT NUMBER  1, TIME INCREMENT   1.26    

  NUMBER OF EQUATIONS =      4925     NUMBER OF FLOATING PT. OPERATIONS =  6.01E+07

     CHECK POINT   START OF SOLVER    

     CHECK POINT  END OF SOLVER       

       ELAPSED USER TIME (SEC)      =  0.10000    
       ELAPSED SYSTEM TIME (SEC)    =   0.0000    
       ELAPSED TOTAL CPU TIME (SEC) =  0.10000    
       ELAPSED WALLCLOCK TIME (SEC) =          0

               CONVERGENCE CHECKS FOR EQUILIBRIUM ITERATION     1


 AVERAGE HEAT FLUX                   339.       TIME AVG. HEAT FLUX    421.    
 LARGEST RESIDUAL HEAT FLUX         -1.21       AT NODE        928   DOF 11
   INSTANCE: GJSLIM-1                                                                        
 LARGEST INCREMENT OF TEMP.         -29.0       AT NODE         15   DOF 11
   INSTANCE: GJSLIM-1                                                                        
 LARGEST CORRECTION TO TEMP.         3.90       AT NODE          9   DOF 11
   INSTANCE: GJSLIM-1                                                                        
 ESTIMATE OF TEMP.    CORRECTION   -3.405E-02
 HEAT FLUX EQUILIB. ACCEPTED BASED ON SMALL RESIDUAL AND ESTIMATED CORRECTION

 MAXIMUM NON-PRESCRIBED INCREMENT IN TEMPERATURE IS   -29.0    
          TIME INCREMENT MAY NOW INCREASE TO     1.74    

 ITERATION SUMMARY FOR THE INCREMENT:   1 TOTAL ITERATIONS, OF WHICH
   0 ARE SEVERE DISCONTINUITY ITERATIONS AND  1 ARE EQUILIBRIUM ITERATIONS.

 TIME INCREMENT COMPLETED   1.26    ,  FRACTION OF STEP COMPLETED  3.909E-03
 STEP TIME COMPLETED        19.5    ,  TOTAL TIME COMPLETED         19.5    


  INCREMENT    29 STARTS. ATTEMPT NUMBER  1, TIME INCREMENT   1.74    

  NUMBER OF EQUATIONS =      4925     NUMBER OF FLOATING PT. OPERATIONS =  6.01E+07

     CHECK POINT   START OF SOLVER    

     CHECK POINT  END OF SOLVER       

       ELAPSED USER TIME (SEC)      =  0.10000    
       ELAPSED SYSTEM TIME (SEC)    =   0.0000    
       ELAPSED TOTAL CPU TIME (SEC) =  0.10000    
       ELAPSED WALLCLOCK TIME (SEC) =          0

               CONVERGENCE CHECKS FOR EQUILIBRIUM ITERATION     1


 AVERAGE HEAT FLUX                   330.       TIME AVG. HEAT FLUX    418.    
 LARGEST RESIDUAL HEAT FLUX         -2.05       AT NODE        946   DOF 11
   INSTANCE: GJSLIM-1                                                                        
 LARGEST INCREMENT OF TEMP.         -33.8       AT NODE       4925   DOF 11
   INSTANCE: GJSLIM-1                                                                        
 LARGEST CORRECTION TO TEMP.         6.53       AT NODE         16   DOF 11
   INSTANCE: GJSLIM-1                                                                        
 ESTIMATE OF TEMP.    CORRECTION   -7.455E-02
 HEAT FLUX EQUILIB. ACCEPTED BASED ON SMALL RESIDUAL AND ESTIMATED CORRECTION

 MAXIMUM NON-PRESCRIBED INCREMENT IN TEMPERATURE IS   -33.8    

 ITERATION SUMMARY FOR THE INCREMENT:   1 TOTAL ITERATIONS, OF WHICH
   0 ARE SEVERE DISCONTINUITY ITERATIONS AND  1 ARE EQUILIBRIUM ITERATIONS.

 TIME INCREMENT COMPLETED   1.74    ,  FRACTION OF STEP COMPLETED  4.257E-03
 STEP TIME COMPLETED        21.3    ,  TOTAL TIME COMPLETED         21.3    


  INCREMENT    30 STARTS. ATTEMPT NUMBER  1, TIME INCREMENT   1.74    

  NUMBER OF EQUATIONS =      4925     NUMBER OF FLOATING PT. OPERATIONS =  6.01E+07

     CHECK POINT   START OF SOLVER    

     CHECK POINT  END OF SOLVER       

       ELAPSED USER TIME (SEC)      =  0.10000    
       ELAPSED SYSTEM TIME (SEC)    =   0.0000    
       ELAPSED TOTAL CPU TIME (SEC) =  0.10000    
       ELAPSED WALLCLOCK TIME (SEC) =          0

               CONVERGENCE CHECKS FOR EQUILIBRIUM ITERATION     1


 AVERAGE HEAT FLUX                   322.       TIME AVG. HEAT FLUX    414.    
 LARGEST RESIDUAL HEAT FLUX         -2.10       AT NODE        946   DOF 11
   INSTANCE: GJSLIM-1                                                                        
 LARGEST INCREMENT OF TEMP.         -30.0       AT NODE       4925   DOF 11
   INSTANCE: GJSLIM-1                                                                        
 LARGEST CORRECTION TO TEMP.         5.48       AT NODE         10   DOF 11
   INSTANCE: GJSLIM-1                                                                        
          HEAT FLUX EQUILIBRIUM NOT ACHIEVED WITHIN TOLERANCE.

  NUMBER OF EQUATIONS =      4925     NUMBER OF FLOATING PT. OPERATIONS =  6.01E+07

     CHECK POINT   START OF SOLVER    

     CHECK POINT  END OF SOLVER       

       ELAPSED USER TIME (SEC)      =   0.0000    
       ELAPSED SYSTEM TIME (SEC)    =   0.0000    
       ELAPSED TOTAL CPU TIME (SEC) =   0.0000    
       ELAPSED WALLCLOCK TIME (SEC) =          0

               CONVERGENCE CHECKS FOR EQUILIBRIUM ITERATION     2


 AVERAGE HEAT FLUX                   326.       TIME AVG. HEAT FLUX    414.    
 LARGEST RESIDUAL HEAT FLUX        -3.472E-02   AT NODE        946   DOF 11
   INSTANCE: GJSLIM-1                                                                        
 LARGEST INCREMENT OF TEMP.         -30.1       AT NODE       4925   DOF 11
   INSTANCE: GJSLIM-1                                                                        
 LARGEST CORRECTION TO TEMP.        2.010E-02   AT NODE         15   DOF 11
   INSTANCE: GJSLIM-1                                                                        
          THE HEAT FLUX EQUILIBRIUM EQUATIONS HAVE CONVERGED

 MAXIMUM NON-PRESCRIBED INCREMENT IN TEMPERATURE IS   -30.1    

 ITERATION SUMMARY FOR THE INCREMENT:   2 TOTAL ITERATIONS, OF WHICH
   0 ARE SEVERE DISCONTINUITY ITERATIONS AND  2 ARE EQUILIBRIUM ITERATIONS.

 TIME INCREMENT COMPLETED   1.74    ,  FRACTION OF STEP COMPLETED  4.606E-03
 STEP TIME COMPLETED        23.0    ,  TOTAL TIME COMPLETED         23.0    


  INCREMENT    31 STARTS. ATTEMPT NUMBER  1, TIME INCREMENT   1.74    

  NUMBER OF EQUATIONS =      4925     NUMBER OF FLOATING PT. OPERATIONS =  6.01E+07

     CHECK POINT   START OF SOLVER    

     CHECK POINT  END OF SOLVER       

       ELAPSED USER TIME (SEC)      =   0.0000    
       ELAPSED SYSTEM TIME (SEC)    =   0.0000    
       ELAPSED TOTAL CPU TIME (SEC) =   0.0000    
       ELAPSED WALLCLOCK TIME (SEC) =          0

               CONVERGENCE CHECKS FOR EQUILIBRIUM ITERATION     1


 AVERAGE HEAT FLUX                   315.       TIME AVG. HEAT FLUX    411.    
 LARGEST RESIDUAL HEAT FLUX         -1.98       AT NODE        946   DOF 11
   INSTANCE: GJSLIM-1                                                                        
 LARGEST INCREMENT OF TEMP.         -26.7       AT NODE       4768   DOF 11
   INSTANCE: GJSLIM-1                                                                        
 LARGEST CORRECTION TO TEMP.         4.90       AT NODE         15   DOF 11
   INSTANCE: GJSLIM-1                                                                        
 ESTIMATE OF TEMP.    CORRECTION   -6.562E-02
 HEAT FLUX EQUILIB. ACCEPTED BASED ON SMALL RESIDUAL AND ESTIMATED CORRECTION

 MAXIMUM NON-PRESCRIBED INCREMENT IN TEMPERATURE IS   -26.7    
          TIME INCREMENT MAY NOW INCREASE TO     2.61    

 ITERATION SUMMARY FOR THE INCREMENT:   1 TOTAL ITERATIONS, OF WHICH
   0 ARE SEVERE DISCONTINUITY ITERATIONS AND  1 ARE EQUILIBRIUM ITERATIONS.

 TIME INCREMENT COMPLETED   1.74    ,  FRACTION OF STEP COMPLETED  4.955E-03
 STEP TIME COMPLETED        24.8    ,  TOTAL TIME COMPLETED         24.8    


  INCREMENT    32 STARTS. ATTEMPT NUMBER  1, TIME INCREMENT   2.61    

  NUMBER OF EQUATIONS =      4925     NUMBER OF FLOATING PT. OPERATIONS =  6.01E+07

     CHECK POINT   START OF SOLVER    

     CHECK POINT  END OF SOLVER       

       ELAPSED USER TIME (SEC)      =   0.0000    
       ELAPSED SYSTEM TIME (SEC)    =   0.0000    
       ELAPSED TOTAL CPU TIME (SEC) =   0.0000    
       ELAPSED WALLCLOCK TIME (SEC) =          0

               CONVERGENCE CHECKS FOR EQUILIBRIUM ITERATION     1


 AVERAGE HEAT FLUX                   306.       TIME AVG. HEAT FLUX    408.    
 LARGEST RESIDUAL HEAT FLUX         -4.36       AT NODE       1073   DOF 11
   INSTANCE: GJSLIM-1                                                                        
 LARGEST INCREMENT OF TEMP.         -34.5       AT NODE       4768   DOF 11
   INSTANCE: GJSLIM-1                                                                        
 LARGEST CORRECTION TO TEMP.         8.61       AT NODE         16   DOF 11
   INSTANCE: GJSLIM-1                                                                        
          HEAT FLUX EQUILIBRIUM NOT ACHIEVED WITHIN TOLERANCE.

  NUMBER OF EQUATIONS =      4925     NUMBER OF FLOATING PT. OPERATIONS =  6.01E+07

     CHECK POINT   START OF SOLVER    

     CHECK POINT  END OF SOLVER       

       ELAPSED USER TIME (SEC)      =   0.0000    
       ELAPSED SYSTEM TIME (SEC)    =   0.0000    
       ELAPSED TOTAL CPU TIME (SEC) =   0.0000    
       ELAPSED WALLCLOCK TIME (SEC) =          0

               CONVERGENCE CHECKS FOR EQUILIBRIUM ITERATION     2


 AVERAGE HEAT FLUX                   310.       TIME AVG. HEAT FLUX    408.    
 LARGEST RESIDUAL HEAT FLUX        -3.401E-02   AT NODE       1073   DOF 11
   INSTANCE: GJSLIM-1                                                                        
 LARGEST INCREMENT OF TEMP.         -34.5       AT NODE       4768   DOF 11
   INSTANCE: GJSLIM-1                                                                        
 LARGEST CORRECTION TO TEMP.       -5.066E-02   AT NODE         18   DOF 11
   INSTANCE: GJSLIM-1                                                                        
          THE HEAT FLUX EQUILIBRIUM EQUATIONS HAVE CONVERGED

 MAXIMUM NON-PRESCRIBED INCREMENT IN TEMPERATURE IS   -34.5    

 ITERATION SUMMARY FOR THE INCREMENT:   2 TOTAL ITERATIONS, OF WHICH
   0 ARE SEVERE DISCONTINUITY ITERATIONS AND  2 ARE EQUILIBRIUM ITERATIONS.

 TIME INCREMENT COMPLETED   2.61    ,  FRACTION OF STEP COMPLETED  5.477E-03
 STEP TIME COMPLETED        27.4    ,  TOTAL TIME COMPLETED         27.4    


  INCREMENT    33 STARTS. ATTEMPT NUMBER  1, TIME INCREMENT   2.61    

  NUMBER OF EQUATIONS =      4925     NUMBER OF FLOATING PT. OPERATIONS =  6.01E+07

     CHECK POINT   START OF SOLVER    

     CHECK POINT  END OF SOLVER       

       ELAPSED USER TIME (SEC)      =   0.0000    
       ELAPSED SYSTEM TIME (SEC)    =   0.0000    
       ELAPSED TOTAL CPU TIME (SEC) =   0.0000    
       ELAPSED WALLCLOCK TIME (SEC) =          0

               CONVERGENCE CHECKS FOR EQUILIBRIUM ITERATION     1


 AVERAGE HEAT FLUX                   298.       TIME AVG. HEAT FLUX    405.    
 LARGEST RESIDUAL HEAT FLUX         -4.43       AT NODE       1073   DOF 11
   INSTANCE: GJSLIM-1                                                                        
 LARGEST INCREMENT OF TEMP.         -30.1       AT NODE       4768   DOF 11
   INSTANCE: GJSLIM-1                                                                        
 LARGEST CORRECTION TO TEMP.         5.47       AT NODE         16   DOF 11
   INSTANCE: GJSLIM-1                                                                        
          HEAT FLUX EQUILIBRIUM NOT ACHIEVED WITHIN TOLERANCE.

  NUMBER OF EQUATIONS =      4925     NUMBER OF FLOATING PT. OPERATIONS =  6.01E+07

     CHECK POINT   START OF SOLVER    

     CHECK POINT  END OF SOLVER       

       ELAPSED USER TIME (SEC)      =   0.0000    
       ELAPSED SYSTEM TIME (SEC)    =   0.0000    
       ELAPSED TOTAL CPU TIME (SEC) =   0.0000    
       ELAPSED WALLCLOCK TIME (SEC) =          0

               CONVERGENCE CHECKS FOR EQUILIBRIUM ITERATION     2


 AVERAGE HEAT FLUX                   301.       TIME AVG. HEAT FLUX    405.    
 LARGEST RESIDUAL HEAT FLUX        -1.946E-02   AT NODE        955   DOF 11
   INSTANCE: GJSLIM-1                                                                        
 LARGEST INCREMENT OF TEMP.         -30.1       AT NODE       4768   DOF 11
   INSTANCE: GJSLIM-1                                                                        
 LARGEST CORRECTION TO TEMP.       -4.581E-02   AT NODE         31   DOF 11
   INSTANCE: GJSLIM-1                                                                        
          THE HEAT FLUX EQUILIBRIUM EQUATIONS HAVE CONVERGED

 MAXIMUM NON-PRESCRIBED INCREMENT IN TEMPERATURE IS   -30.1    

 ITERATION SUMMARY FOR THE INCREMENT:   2 TOTAL ITERATIONS, OF WHICH
   0 ARE SEVERE DISCONTINUITY ITERATIONS AND  2 ARE EQUILIBRIUM ITERATIONS.

 TIME INCREMENT COMPLETED   2.61    ,  FRACTION OF STEP COMPLETED  5.999E-03
 STEP TIME COMPLETED        30.0    ,  TOTAL TIME COMPLETED         30.0    


  INCREMENT    34 STARTS. ATTEMPT NUMBER  1, TIME INCREMENT   2.61    

  NUMBER OF EQUATIONS =      4925     NUMBER OF FLOATING PT. OPERATIONS =  6.01E+07

     CHECK POINT   START OF SOLVER    

     CHECK POINT  END OF SOLVER       

       ELAPSED USER TIME (SEC)      =   0.0000    
       ELAPSED SYSTEM TIME (SEC)    =   0.0000    
       ELAPSED TOTAL CPU TIME (SEC) =   0.0000    
       ELAPSED WALLCLOCK TIME (SEC) =          0

               CONVERGENCE CHECKS FOR EQUILIBRIUM ITERATION     1


 AVERAGE HEAT FLUX                   291.       TIME AVG. HEAT FLUX    402.    
 LARGEST RESIDUAL HEAT FLUX         -4.15       AT NODE       1073   DOF 11
   INSTANCE: GJSLIM-1                                                                        
 LARGEST INCREMENT OF TEMP.         -26.4       AT NODE       4768   DOF 11
   INSTANCE: GJSLIM-1                                                                        
 LARGEST CORRECTION TO TEMP.         4.35       AT NODE       2629   DOF 11
   INSTANCE: GJSLIM-1                                                                        
          HEAT FLUX EQUILIBRIUM NOT ACHIEVED WITHIN TOLERANCE.

  NUMBER OF EQUATIONS =      4925     NUMBER OF FLOATING PT. OPERATIONS =  6.01E+07

     CHECK POINT   START OF SOLVER    

     CHECK POINT  END OF SOLVER       

       ELAPSED USER TIME (SEC)      =   0.0000    
       ELAPSED SYSTEM TIME (SEC)    =   0.0000    
       ELAPSED TOTAL CPU TIME (SEC) =   0.0000    
       ELAPSED WALLCLOCK TIME (SEC) =          0

               CONVERGENCE CHECKS FOR EQUILIBRIUM ITERATION     2


 AVERAGE HEAT FLUX                   294.       TIME AVG. HEAT FLUX    402.    
 LARGEST RESIDUAL HEAT FLUX        -1.488E-02   AT NODE       1348   DOF 11
   INSTANCE: GJSLIM-1                                                                        
 LARGEST INCREMENT OF TEMP.         -26.4       AT NODE       4768   DOF 11
   INSTANCE: GJSLIM-1                                                                        
 LARGEST CORRECTION TO TEMP.       -4.888E-02   AT NODE        267   DOF 11
   INSTANCE: GJSLIM-1                                                                        
          THE HEAT FLUX EQUILIBRIUM EQUATIONS HAVE CONVERGED

 MAXIMUM NON-PRESCRIBED INCREMENT IN TEMPERATURE IS   -26.4    
          TIME INCREMENT MAY NOW INCREASE TO     3.92    

 ITERATION SUMMARY FOR THE INCREMENT:   2 TOTAL ITERATIONS, OF WHICH
   0 ARE SEVERE DISCONTINUITY ITERATIONS AND  2 ARE EQUILIBRIUM ITERATIONS.

 TIME INCREMENT COMPLETED   2.61    ,  FRACTION OF STEP COMPLETED  6.522E-03
 STEP TIME COMPLETED        32.6    ,  TOTAL TIME COMPLETED         32.6    


  INCREMENT    35 STARTS. ATTEMPT NUMBER  1, TIME INCREMENT   3.92    

  NUMBER OF EQUATIONS =      4925     NUMBER OF FLOATING PT. OPERATIONS =  6.01E+07

     CHECK POINT   START OF SOLVER    

     CHECK POINT  END OF SOLVER       

       ELAPSED USER TIME (SEC)      =   0.0000    
       ELAPSED SYSTEM TIME (SEC)    =   0.0000    
       ELAPSED TOTAL CPU TIME (SEC) =   0.0000    
       ELAPSED WALLCLOCK TIME (SEC) =          0

               CONVERGENCE CHECKS FOR EQUILIBRIUM ITERATION     1


 AVERAGE HEAT FLUX                   283.       TIME AVG. HEAT FLUX    398.    
 LARGEST RESIDUAL HEAT FLUX         -7.61       AT NODE       1073   DOF 11
   INSTANCE: GJSLIM-1                                                                        
 LARGEST INCREMENT OF TEMP.         -35.6       AT NODE       1464   DOF 11
   INSTANCE: GJSLIM-1                                                                        
 LARGEST CORRECTION TO TEMP.         7.47       AT NODE       2629   DOF 11
   INSTANCE: GJSLIM-1                                                                        
          HEAT FLUX EQUILIBRIUM NOT ACHIEVED WITHIN TOLERANCE.

  NUMBER OF EQUATIONS =      4925     NUMBER OF FLOATING PT. OPERATIONS =  6.01E+07

     CHECK POINT   START OF SOLVER    

     CHECK POINT  END OF SOLVER       

       ELAPSED USER TIME (SEC)      =   0.0000    
       ELAPSED SYSTEM TIME (SEC)    =   0.0000    
       ELAPSED TOTAL CPU TIME (SEC) =   0.0000    
       ELAPSED WALLCLOCK TIME (SEC) =          0

               CONVERGENCE CHECKS FOR EQUILIBRIUM ITERATION     2


 AVERAGE HEAT FLUX                   286.       TIME AVG. HEAT FLUX    398.    
 LARGEST RESIDUAL HEAT FLUX        -3.449E-02   AT NODE       1515   DOF 11
   INSTANCE: GJSLIM-1                                                                        
 LARGEST INCREMENT OF TEMP.         -35.6       AT NODE       1464   DOF 11
   INSTANCE: GJSLIM-1                                                                        
 LARGEST CORRECTION TO TEMP.       -0.136       AT NODE         31   DOF 11
   INSTANCE: GJSLIM-1                                                                        
          THE HEAT FLUX EQUILIBRIUM EQUATIONS HAVE CONVERGED

 MAXIMUM NON-PRESCRIBED INCREMENT IN TEMPERATURE IS   -35.6    

 ITERATION SUMMARY FOR THE INCREMENT:   2 TOTAL ITERATIONS, OF WHICH
   0 ARE SEVERE DISCONTINUITY ITERATIONS AND  2 ARE EQUILIBRIUM ITERATIONS.

 TIME INCREMENT COMPLETED   3.92    ,  FRACTION OF STEP COMPLETED  7.305E-03
 STEP TIME COMPLETED        36.5    ,  TOTAL TIME COMPLETED         36.5    


  INCREMENT    36 STARTS. ATTEMPT NUMBER  1, TIME INCREMENT   3.92    

  NUMBER OF EQUATIONS =      4925     NUMBER OF FLOATING PT. OPERATIONS =  6.01E+07

     CHECK POINT   START OF SOLVER    

     CHECK POINT  END OF SOLVER       

       ELAPSED USER TIME (SEC)      =   0.0000    
       ELAPSED SYSTEM TIME (SEC)    =   0.0000    
       ELAPSED TOTAL CPU TIME (SEC) =   0.0000    
       ELAPSED WALLCLOCK TIME (SEC) =          0

               CONVERGENCE CHECKS FOR EQUILIBRIUM ITERATION     1


 AVERAGE HEAT FLUX                   275.       TIME AVG. HEAT FLUX    395.    
 LARGEST RESIDUAL HEAT FLUX         -6.54       AT NODE        953   DOF 11
   INSTANCE: GJSLIM-1                                                                        
 LARGEST INCREMENT OF TEMP.         -32.3       AT NODE       1464   DOF 11
   INSTANCE: GJSLIM-1                                                                        
 LARGEST CORRECTION TO TEMP.         5.79       AT NODE       4925   DOF 11
   INSTANCE: GJSLIM-1                                                                        
          HEAT FLUX EQUILIBRIUM NOT ACHIEVED WITHIN TOLERANCE.

  NUMBER OF EQUATIONS =      4925     NUMBER OF FLOATING PT. OPERATIONS =  6.01E+07

     CHECK POINT   START OF SOLVER    

     CHECK POINT  END OF SOLVER       

       ELAPSED USER TIME (SEC)      =   0.0000    
       ELAPSED SYSTEM TIME (SEC)    =   0.0000    
       ELAPSED TOTAL CPU TIME (SEC) =   0.0000    
       ELAPSED WALLCLOCK TIME (SEC) =          0

               CONVERGENCE CHECKS FOR EQUILIBRIUM ITERATION     2


 AVERAGE HEAT FLUX                   277.       TIME AVG. HEAT FLUX    395.    
 LARGEST RESIDUAL HEAT FLUX        -5.134E-02   AT NODE       4632   DOF 11
   INSTANCE: GJSLIM-1                                                                        
 LARGEST INCREMENT OF TEMP.         -32.3       AT NODE       1464   DOF 11
   INSTANCE: GJSLIM-1                                                                        
 LARGEST CORRECTION TO TEMP.       -0.141       AT NODE         25   DOF 11
   INSTANCE: GJSLIM-1                                                                        
          THE HEAT FLUX EQUILIBRIUM EQUATIONS HAVE CONVERGED

 MAXIMUM NON-PRESCRIBED INCREMENT IN TEMPERATURE IS   -32.3    

 ITERATION SUMMARY FOR THE INCREMENT:   2 TOTAL ITERATIONS, OF WHICH
   0 ARE SEVERE DISCONTINUITY ITERATIONS AND  2 ARE EQUILIBRIUM ITERATIONS.

 TIME INCREMENT COMPLETED   3.92    ,  FRACTION OF STEP COMPLETED  8.089E-03
 STEP TIME COMPLETED        40.4    ,  TOTAL TIME COMPLETED         40.4    


  INCREMENT    37 STARTS. ATTEMPT NUMBER  1, TIME INCREMENT   3.92    

  NUMBER OF EQUATIONS =      4925     NUMBER OF FLOATING PT. OPERATIONS =  6.01E+07

     CHECK POINT   START OF SOLVER    

     CHECK POINT  END OF SOLVER       

       ELAPSED USER TIME (SEC)      =   0.0000    
       ELAPSED SYSTEM TIME (SEC)    =   0.0000    
       ELAPSED TOTAL CPU TIME (SEC) =   0.0000    
       ELAPSED WALLCLOCK TIME (SEC) =          0

               CONVERGENCE CHECKS FOR EQUILIBRIUM ITERATION     1


 AVERAGE HEAT FLUX                   267.       TIME AVG. HEAT FLUX    391.    
 LARGEST RESIDUAL HEAT FLUX         -5.69       AT NODE       1073   DOF 11
   INSTANCE: GJSLIM-1                                                                        
 LARGEST INCREMENT OF TEMP.         -29.3       AT NODE       1464   DOF 11
   INSTANCE: GJSLIM-1                                                                        
 LARGEST CORRECTION TO TEMP.         4.46       AT NODE       4925   DOF 11
   INSTANCE: GJSLIM-1                                                                        
          HEAT FLUX EQUILIBRIUM NOT ACHIEVED WITHIN TOLERANCE.

  NUMBER OF EQUATIONS =      4925     NUMBER OF FLOATING PT. OPERATIONS =  6.01E+07

     CHECK POINT   START OF SOLVER    

     CHECK POINT  END OF SOLVER       

       ELAPSED USER TIME (SEC)      =   0.0000    
       ELAPSED SYSTEM TIME (SEC)    =   0.0000    
       ELAPSED TOTAL CPU TIME (SEC) =   0.0000    
       ELAPSED WALLCLOCK TIME (SEC) =          0

               CONVERGENCE CHECKS FOR EQUILIBRIUM ITERATION     2


 AVERAGE HEAT FLUX                   269.       TIME AVG. HEAT FLUX    392.    
 LARGEST RESIDUAL HEAT FLUX        -4.793E-02   AT NODE       1515   DOF 11
   INSTANCE: GJSLIM-1                                                                        
 LARGEST INCREMENT OF TEMP.         -29.3       AT NODE       1464   DOF 11
   INSTANCE: GJSLIM-1                                                                        
 LARGEST CORRECTION TO TEMP.       -0.147       AT NODE         28   DOF 11
   INSTANCE: GJSLIM-1                                                                        
          THE HEAT FLUX EQUILIBRIUM EQUATIONS HAVE CONVERGED

 MAXIMUM NON-PRESCRIBED INCREMENT IN TEMPERATURE IS   -29.3    
          TIME INCREMENT MAY NOW INCREASE TO     5.34    

 ITERATION SUMMARY FOR THE INCREMENT:   2 TOTAL ITERATIONS, OF WHICH
   0 ARE SEVERE DISCONTINUITY ITERATIONS AND  2 ARE EQUILIBRIUM ITERATIONS.

 TIME INCREMENT COMPLETED   3.92    ,  FRACTION OF STEP COMPLETED  8.873E-03
 STEP TIME COMPLETED        44.4    ,  TOTAL TIME COMPLETED         44.4    


  INCREMENT    38 STARTS. ATTEMPT NUMBER  1, TIME INCREMENT   5.34    

  NUMBER OF EQUATIONS =      4925     NUMBER OF FLOATING PT. OPERATIONS =  6.01E+07

     CHECK POINT   START OF SOLVER    

     CHECK POINT  END OF SOLVER       

       ELAPSED USER TIME (SEC)      =   0.0000    
       ELAPSED SYSTEM TIME (SEC)    =   0.0000    
       ELAPSED TOTAL CPU TIME (SEC) =   0.0000    
       ELAPSED WALLCLOCK TIME (SEC) =          0

               CONVERGENCE CHECKS FOR EQUILIBRIUM ITERATION     1


 AVERAGE HEAT FLUX                   259.       TIME AVG. HEAT FLUX    388.    
 LARGEST RESIDUAL HEAT FLUX         -8.15       AT NODE        953   DOF 11
   INSTANCE: GJSLIM-1                                                                        
 LARGEST INCREMENT OF TEMP.         -35.4       AT NODE       1464   DOF 11
   INSTANCE: GJSLIM-1                                                                        
 LARGEST CORRECTION TO TEMP.         5.94       AT NODE       3926   DOF 11
   INSTANCE: GJSLIM-1                                                                        
          HEAT FLUX EQUILIBRIUM NOT ACHIEVED WITHIN TOLERANCE.

  NUMBER OF EQUATIONS =      4925     NUMBER OF FLOATING PT. OPERATIONS =  6.01E+07

     CHECK POINT   START OF SOLVER    

     CHECK POINT  END OF SOLVER       

       ELAPSED USER TIME (SEC)      =   0.0000    
       ELAPSED SYSTEM TIME (SEC)    =   0.0000    
       ELAPSED TOTAL CPU TIME (SEC) =   0.0000    
       ELAPSED WALLCLOCK TIME (SEC) =          0

               CONVERGENCE CHECKS FOR EQUILIBRIUM ITERATION     2


 AVERAGE HEAT FLUX                   259.       TIME AVG. HEAT FLUX    388.    
 LARGEST RESIDUAL HEAT FLUX        -9.480E-02   AT NODE       1515   DOF 11
   INSTANCE: GJSLIM-1                                                                        
 LARGEST INCREMENT OF TEMP.         -35.5       AT NODE       1464   DOF 11
   INSTANCE: GJSLIM-1                                                                        
 LARGEST CORRECTION TO TEMP.       -0.223       AT NODE          6   DOF 11
[...]

  NUMBER OF EQUATIONS =      4925     NUMBER OF FLOATING PT. OPERATIONS =  6.01E+07

     CHECK POINT   START OF SOLVER    

     CHECK POINT  END OF SOLVER       

       ELAPSED USER TIME (SEC)      =   0.0000    
       ELAPSED SYSTEM TIME (SEC)    =   0.0000    
       ELAPSED TOTAL CPU TIME (SEC) =   0.0000    
       ELAPSED WALLCLOCK TIME (SEC) =          0

               CONVERGENCE CHECKS FOR EQUILIBRIUM ITERATION     1


 AVERAGE HEAT FLUX                  4.258E-02   TIME AVG. HEAT FLUX    170.    
 LARGEST RESIDUAL HEAT FLUX        -4.800E-05   AT NODE       1011   DOF 11
   INSTANCE: GJSLIM-1                                                                        
 LARGEST INCREMENT OF TEMP.        -0.246       AT NODE       2937   DOF 11
   INSTANCE: GJSLIM-1                                                                        
 LARGEST CORRECTION TO TEMP.        6.378E-02   AT NODE       2937   DOF 11
   INSTANCE: GJSLIM-1                                                                        
 ESTIMATE OF TEMP.    CORRECTION    9.409E-06
 HEAT FLUX EQUILIB. ACCEPTED BASED ON SMALL RESIDUAL AND ESTIMATED CORRECTION

 MAXIMUM NON-PRESCRIBED INCREMENT IN TEMPERATURE IS  -0.246    

 ITERATION SUMMARY FOR THE INCREMENT:   1 TOTAL ITERATIONS, OF WHICH
   0 ARE SEVERE DISCONTINUITY ITERATIONS AND  1 ARE EQUILIBRIUM ITERATIONS.

 TIME INCREMENT COMPLETED   100.    ,  FRACTION OF STEP COMPLETED  0.793    
 STEP TIME COMPLETED       3.966E+03,  TOTAL TIME COMPLETED        3.966E+03


  INCREMENT   145 STARTS. ATTEMPT NUMBER  1, TIME INCREMENT   100.    

  NUMBER OF EQUATIONS =      4925     NUMBER OF FLOATING PT. OPERATIONS =  6.01E+07

     CHECK POINT   START OF SOLVER    

     CHECK POINT  END OF SOLVER       

       ELAPSED USER TIME (SEC)      =   0.0000    
       ELAPSED SYSTEM TIME (SEC)    =   0.0000    
       ELAPSED TOTAL CPU TIME (SEC) =   0.0000    
       ELAPSED WALLCLOCK TIME (SEC) =          0

               CONVERGENCE CHECKS FOR EQUILIBRIUM ITERATION     1


 AVERAGE HEAT FLUX                  3.356E-02   TIME AVG. HEAT FLUX    169.    
 LARGEST RESIDUAL HEAT FLUX        -3.026E-05   AT NODE       1011   DOF 11
   INSTANCE: GJSLIM-1                                                                        
 LARGEST INCREMENT OF TEMP.        -0.195       AT NODE       2937   DOF 11
   INSTANCE: GJSLIM-1                                                                        
 LARGEST CORRECTION TO TEMP.        5.064E-02   AT NODE       2937   DOF 11
   INSTANCE: GJSLIM-1                                                                        
 ESTIMATE OF TEMP.    CORRECTION    5.931E-06
 HEAT FLUX EQUILIB. ACCEPTED BASED ON SMALL RESIDUAL AND ESTIMATED CORRECTION

 MAXIMUM NON-PRESCRIBED INCREMENT IN TEMPERATURE IS  -0.195    

 ITERATION SUMMARY FOR THE INCREMENT:   1 TOTAL ITERATIONS, OF WHICH
   0 ARE SEVERE DISCONTINUITY ITERATIONS AND  1 ARE EQUILIBRIUM ITERATIONS.

 TIME INCREMENT COMPLETED   100.    ,  FRACTION OF STEP COMPLETED  0.813    
 STEP TIME COMPLETED       4.066E+03,  TOTAL TIME COMPLETED        4.066E+03


  INCREMENT   146 STARTS. ATTEMPT NUMBER  1, TIME INCREMENT   100.    

  NUMBER OF EQUATIONS =      4925     NUMBER OF FLOATING PT. OPERATIONS =  6.01E+07

     CHECK POINT   START OF SOLVER    

     CHECK POINT  END OF SOLVER       

       ELAPSED USER TIME (SEC)      =   0.0000    
       ELAPSED SYSTEM TIME (SEC)    =   0.0000    
       ELAPSED TOTAL CPU TIME (SEC) =   0.0000    
       ELAPSED WALLCLOCK TIME (SEC) =          0

               CONVERGENCE CHECKS FOR EQUILIBRIUM ITERATION     1


 AVERAGE HEAT FLUX                  2.645E-02   TIME AVG. HEAT FLUX    168.    
 LARGEST RESIDUAL HEAT FLUX        -1.907E-05   AT NODE       1011   DOF 11
   INSTANCE: GJSLIM-1                                                                        
 LARGEST INCREMENT OF TEMP.        -0.155       AT NODE       2937   DOF 11
   INSTANCE: GJSLIM-1                                                                        
 LARGEST CORRECTION TO TEMP.        4.021E-02   AT NODE       2937   DOF 11
   INSTANCE: GJSLIM-1                                                                        
 ESTIMATE OF TEMP.    CORRECTION    3.739E-06
 HEAT FLUX EQUILIB. ACCEPTED BASED ON SMALL RESIDUAL AND ESTIMATED CORRECTION

 MAXIMUM NON-PRESCRIBED INCREMENT IN TEMPERATURE IS  -0.155    

 ITERATION SUMMARY FOR THE INCREMENT:   1 TOTAL ITERATIONS, OF WHICH
   0 ARE SEVERE DISCONTINUITY ITERATIONS AND  1 ARE EQUILIBRIUM ITERATIONS.

 TIME INCREMENT COMPLETED   100.    ,  FRACTION OF STEP COMPLETED  0.833    
 STEP TIME COMPLETED       4.166E+03,  TOTAL TIME COMPLETED        4.166E+03


  INCREMENT   147 STARTS. ATTEMPT NUMBER  1, TIME INCREMENT   100.    

  NUMBER OF EQUATIONS =      4925     NUMBER OF FLOATING PT. OPERATIONS =  6.01E+07

     CHECK POINT   START OF SOLVER    

     CHECK POINT  END OF SOLVER       

       ELAPSED USER TIME (SEC)      =   0.0000    
       ELAPSED SYSTEM TIME (SEC)    =   0.0000    
       ELAPSED TOTAL CPU TIME (SEC) =   0.0000    
       ELAPSED WALLCLOCK TIME (SEC) =          0

               CONVERGENCE CHECKS FOR EQUILIBRIUM ITERATION     1


 AVERAGE HEAT FLUX                  2.085E-02   TIME AVG. HEAT FLUX    167.    
 LARGEST RESIDUAL HEAT FLUX        -1.202E-05   AT NODE       1011   DOF 11
   INSTANCE: GJSLIM-1                                                                        
 LARGEST INCREMENT OF TEMP.        -0.123       AT NODE       2937   DOF 11
   INSTANCE: GJSLIM-1                                                                        
 LARGEST CORRECTION TO TEMP.        3.192E-02   AT NODE       2937   DOF 11
   INSTANCE: GJSLIM-1                                                                        
 ESTIMATE OF TEMP.    CORRECTION    2.356E-06
 HEAT FLUX EQUILIB. ACCEPTED BASED ON SMALL RESIDUAL AND ESTIMATED CORRECTION

 MAXIMUM NON-PRESCRIBED INCREMENT IN TEMPERATURE IS  -0.123    

 ITERATION SUMMARY FOR THE INCREMENT:   1 TOTAL ITERATIONS, OF WHICH
   0 ARE SEVERE DISCONTINUITY ITERATIONS AND  1 ARE EQUILIBRIUM ITERATIONS.

 TIME INCREMENT COMPLETED   100.    ,  FRACTION OF STEP COMPLETED  0.853    
 STEP TIME COMPLETED       4.266E+03,  TOTAL TIME COMPLETED        4.266E+03


  INCREMENT   148 STARTS. ATTEMPT NUMBER  1, TIME INCREMENT   100.    

  NUMBER OF EQUATIONS =      4925     NUMBER OF FLOATING PT. OPERATIONS =  6.01E+07

     CHECK POINT   START OF SOLVER    

     CHECK POINT  END OF SOLVER       

       ELAPSED USER TIME (SEC)      =   0.0000    
       ELAPSED SYSTEM TIME (SEC)    =   0.0000    
       ELAPSED TOTAL CPU TIME (SEC) =   0.0000    
       ELAPSED WALLCLOCK TIME (SEC) =          0

               CONVERGENCE CHECKS FOR EQUILIBRIUM ITERATION     1


 AVERAGE HEAT FLUX                  1.644E-02   TIME AVG. HEAT FLUX    166.    
 LARGEST RESIDUAL HEAT FLUX        -7.576E-06   AT NODE       1011   DOF 11
   INSTANCE: GJSLIM-1                                                                        
 LARGEST INCREMENT OF TEMP.        -9.752E-02   AT NODE       2937   DOF 11
   INSTANCE: GJSLIM-1                                                                        
 LARGEST CORRECTION TO TEMP.        2.534E-02   AT NODE       2937   DOF 11
   INSTANCE: GJSLIM-1                                                                        
 ESTIMATE OF TEMP.    CORRECTION    1.485E-06
 HEAT FLUX EQUILIB. ACCEPTED BASED ON SMALL RESIDUAL AND ESTIMATED CORRECTION

 MAXIMUM NON-PRESCRIBED INCREMENT IN TEMPERATURE IS  -9.752E-02

 ITERATION SUMMARY FOR THE INCREMENT:   1 TOTAL ITERATIONS, OF WHICH
   0 ARE SEVERE DISCONTINUITY ITERATIONS AND  1 ARE EQUILIBRIUM ITERATIONS.

 TIME INCREMENT COMPLETED   100.    ,  FRACTION OF STEP COMPLETED  0.873    
 STEP TIME COMPLETED       4.366E+03,  TOTAL TIME COMPLETED        4.366E+03


  INCREMENT   149 STARTS. ATTEMPT NUMBER  1, TIME INCREMENT   100.    

  NUMBER OF EQUATIONS =      4925     NUMBER OF FLOATING PT. OPERATIONS =  6.01E+07

     CHECK POINT   START OF SOLVER    

     CHECK POINT  END OF SOLVER       

       ELAPSED USER TIME (SEC)      =   0.0000    
       ELAPSED SYSTEM TIME (SEC)    =   0.0000    
       ELAPSED TOTAL CPU TIME (SEC) =   0.0000    
       ELAPSED WALLCLOCK TIME (SEC) =          0

               CONVERGENCE CHECKS FOR EQUILIBRIUM ITERATION     1


 AVERAGE HEAT FLUX                  1.296E-02   TIME AVG. HEAT FLUX    165.    
 LARGEST RESIDUAL HEAT FLUX        -4.774E-06   AT NODE       1011   DOF 11
   INSTANCE: GJSLIM-1                                                                        
 LARGEST INCREMENT OF TEMP.        -7.740E-02   AT NODE       2937   DOF 11
   INSTANCE: GJSLIM-1                                                                        
 LARGEST CORRECTION TO TEMP.        2.012E-02   AT NODE       2937   DOF 11
   INSTANCE: GJSLIM-1                                                                        
 ESTIMATE OF TEMP.    CORRECTION    9.357E-07
 HEAT FLUX EQUILIB. ACCEPTED BASED ON SMALL RESIDUAL AND ESTIMATED CORRECTION

 MAXIMUM NON-PRESCRIBED INCREMENT IN TEMPERATURE IS  -7.740E-02

 ITERATION SUMMARY FOR THE INCREMENT:   1 TOTAL ITERATIONS, OF WHICH
   0 ARE SEVERE DISCONTINUITY ITERATIONS AND  1 ARE EQUILIBRIUM ITERATIONS.

 TIME INCREMENT COMPLETED   100.    ,  FRACTION OF STEP COMPLETED  0.893    
 STEP TIME COMPLETED       4.466E+03,  TOTAL TIME COMPLETED        4.466E+03


  INCREMENT   150 STARTS. ATTEMPT NUMBER  1, TIME INCREMENT   100.    

  NUMBER OF EQUATIONS =      4925     NUMBER OF FLOATING PT. OPERATIONS =  6.01E+07

     CHECK POINT   START OF SOLVER    

     CHECK POINT  END OF SOLVER       

       ELAPSED USER TIME (SEC)      =   0.0000    
       ELAPSED SYSTEM TIME (SEC)    =   0.0000    
       ELAPSED TOTAL CPU TIME (SEC) =   0.0000    
       ELAPSED WALLCLOCK TIME (SEC) =          0

               CONVERGENCE CHECKS FOR EQUILIBRIUM ITERATION     1


 AVERAGE HEAT FLUX                  1.022E-02   TIME AVG. HEAT FLUX    164.    
 LARGEST RESIDUAL HEAT FLUX        -3.008E-06   AT NODE       1011   DOF 11
   INSTANCE: GJSLIM-1                                                                        
 LARGEST INCREMENT OF TEMP.        -6.143E-02   AT NODE       2937   DOF 11
   INSTANCE: GJSLIM-1                                                                        
 LARGEST CORRECTION TO TEMP.        1.597E-02   AT NODE       2937   DOF 11
   INSTANCE: GJSLIM-1                                                                        
 ESTIMATE OF TEMP.    CORRECTION    5.896E-07
 HEAT FLUX EQUILIB. ACCEPTED BASED ON SMALL RESIDUAL AND ESTIMATED CORRECTION

 MAXIMUM NON-PRESCRIBED INCREMENT IN TEMPERATURE IS  -6.143E-02

 ITERATION SUMMARY FOR THE INCREMENT:   1 TOTAL ITERATIONS, OF WHICH
   0 ARE SEVERE DISCONTINUITY ITERATIONS AND  1 ARE EQUILIBRIUM ITERATIONS.

 TIME INCREMENT COMPLETED   100.    ,  FRACTION OF STEP COMPLETED  0.913    
 STEP TIME COMPLETED       4.566E+03,  TOTAL TIME COMPLETED        4.566E+03


  INCREMENT   151 STARTS. ATTEMPT NUMBER  1, TIME INCREMENT   100.    

  NUMBER OF EQUATIONS =      4925     NUMBER OF FLOATING PT. OPERATIONS =  6.01E+07

     CHECK POINT   START OF SOLVER    

     CHECK POINT  END OF SOLVER       

       ELAPSED USER TIME (SEC)      =   0.0000    
       ELAPSED SYSTEM TIME (SEC)    =   0.0000    
       ELAPSED TOTAL CPU TIME (SEC) =   0.0000    
       ELAPSED WALLCLOCK TIME (SEC) =          0

               CONVERGENCE CHECKS FOR EQUILIBRIUM ITERATION     1


 AVERAGE HEAT FLUX                  8.053E-03   TIME AVG. HEAT FLUX    163.    
 LARGEST RESIDUAL HEAT FLUX        -1.895E-06   AT NODE       1011   DOF 11
   INSTANCE: GJSLIM-1                                                                        
 LARGEST INCREMENT OF TEMP.        -4.875E-02   AT NODE       2937   DOF 11
   INSTANCE: GJSLIM-1                                                                        
 LARGEST CORRECTION TO TEMP.        1.268E-02   AT NODE       2937   DOF 11
   INSTANCE: GJSLIM-1                                                                        
 ESTIMATE OF TEMP.    CORRECTION    3.715E-07
 HEAT FLUX EQUILIB. ACCEPTED BASED ON SMALL RESIDUAL AND ESTIMATED CORRECTION

 MAXIMUM NON-PRESCRIBED INCREMENT IN TEMPERATURE IS  -4.875E-02

 ITERATION SUMMARY FOR THE INCREMENT:   1 TOTAL ITERATIONS, OF WHICH
   0 ARE SEVERE DISCONTINUITY ITERATIONS AND  1 ARE EQUILIBRIUM ITERATIONS.

 TIME INCREMENT COMPLETED   100.    ,  FRACTION OF STEP COMPLETED  0.933    
 STEP TIME COMPLETED       4.666E+03,  TOTAL TIME COMPLETED        4.666E+03


  INCREMENT   152 STARTS. ATTEMPT NUMBER  1, TIME INCREMENT   100.    

  NUMBER OF EQUATIONS =      4925     NUMBER OF FLOATING PT. OPERATIONS =  6.01E+07

     CHECK POINT   START OF SOLVER    

     CHECK POINT  END OF SOLVER       

       ELAPSED USER TIME (SEC)      =   0.0000    
       ELAPSED SYSTEM TIME (SEC)    =   0.0000    
       ELAPSED TOTAL CPU TIME (SEC) =   0.0000    
       ELAPSED WALLCLOCK TIME (SEC) =          0

               CONVERGENCE CHECKS FOR EQUILIBRIUM ITERATION     1


 AVERAGE HEAT FLUX                  6.349E-03   TIME AVG. HEAT FLUX    161.    
 LARGEST RESIDUAL HEAT FLUX        -1.194E-06   AT NODE       1011   DOF 11
   INSTANCE: GJSLIM-1                                                                        
 LARGEST INCREMENT OF TEMP.        -3.869E-02   AT NODE       2937   DOF 11
   INSTANCE: GJSLIM-1                                                                        
 LARGEST CORRECTION TO TEMP.        1.006E-02   AT NODE       2937   DOF 11
   INSTANCE: GJSLIM-1                                                                        
          THE HEAT FLUX EQUILIBRIUM RESPONSE WAS LINEAR IN THIS INCREMENT

 MAXIMUM NON-PRESCRIBED INCREMENT IN TEMPERATURE IS  -3.869E-02

 ITERATION SUMMARY FOR THE INCREMENT:   1 TOTAL ITERATIONS, OF WHICH
   0 ARE SEVERE DISCONTINUITY ITERATIONS AND  1 ARE EQUILIBRIUM ITERATIONS.

 TIME INCREMENT COMPLETED   100.    ,  FRACTION OF STEP COMPLETED  0.953    
 STEP TIME COMPLETED       4.766E+03,  TOTAL TIME COMPLETED        4.766E+03


  INCREMENT   153 STARTS. ATTEMPT NUMBER  1, TIME INCREMENT   100.    

  NUMBER OF EQUATIONS =      4925     NUMBER OF FLOATING PT. OPERATIONS =  6.01E+07

     CHECK POINT   START OF SOLVER    

     CHECK POINT  END OF SOLVER       

       ELAPSED USER TIME (SEC)      =   0.0000    
       ELAPSED SYSTEM TIME (SEC)    =   0.0000    
       ELAPSED TOTAL CPU TIME (SEC) =   0.0000    
       ELAPSED WALLCLOCK TIME (SEC) =          0

               CONVERGENCE CHECKS FOR EQUILIBRIUM ITERATION     1


 AVERAGE HEAT FLUX                  5.006E-03   TIME AVG. HEAT FLUX    160.    
 LARGEST RESIDUAL HEAT FLUX        -7.522E-07   AT NODE       1011   DOF 11
   INSTANCE: GJSLIM-1                                                                        
 LARGEST INCREMENT OF TEMP.        -3.071E-02   AT NODE       2937   DOF 11
   INSTANCE: GJSLIM-1                                                                        
 LARGEST CORRECTION TO TEMP.        7.986E-03   AT NODE       2937   DOF 11
   INSTANCE: GJSLIM-1                                                                        
          THE HEAT FLUX EQUILIBRIUM RESPONSE WAS LINEAR IN THIS INCREMENT

 MAXIMUM NON-PRESCRIBED INCREMENT IN TEMPERATURE IS  -3.071E-02

 ITERATION SUMMARY FOR THE INCREMENT:   1 TOTAL ITERATIONS, OF WHICH
   0 ARE SEVERE DISCONTINUITY ITERATIONS AND  1 ARE EQUILIBRIUM ITERATIONS.

 TIME INCREMENT COMPLETED   100.    ,  FRACTION OF STEP COMPLETED  0.973    
 STEP TIME COMPLETED       4.866E+03,  TOTAL TIME COMPLETED        4.866E+03


  INCREMENT   154 STARTS. ATTEMPT NUMBER  1, TIME INCREMENT   100.    

  NUMBER OF EQUATIONS =      4925     NUMBER OF FLOATING PT. OPERATIONS =  6.01E+07

     CHECK POINT   START OF SOLVER    

     CHECK POINT  END OF SOLVER       

       ELAPSED USER TIME (SEC)      =   0.0000    
       ELAPSED SYSTEM TIME (SEC)    =   0.0000    
       ELAPSED TOTAL CPU TIME (SEC) =   0.0000    
       ELAPSED WALLCLOCK TIME (SEC) =          0

               CONVERGENCE CHECKS FOR EQUILIBRIUM ITERATION     1


 AVERAGE HEAT FLUX                  3.947E-03   TIME AVG. HEAT FLUX    159.    
 LARGEST RESIDUAL HEAT FLUX        -4.739E-07   AT NODE       1011   DOF 11
   INSTANCE: GJSLIM-1                                                                        
 LARGEST INCREMENT OF TEMP.        -2.437E-02   AT NODE       2937   DOF 11
   INSTANCE: GJSLIM-1                                                                        
 LARGEST CORRECTION TO TEMP.        6.339E-03   AT NODE       2937   DOF 11
   INSTANCE: GJSLIM-1                                                                        
          THE HEAT FLUX EQUILIBRIUM RESPONSE WAS LINEAR IN THIS INCREMENT

 MAXIMUM NON-PRESCRIBED INCREMENT IN TEMPERATURE IS  -2.437E-02

 ITERATION SUMMARY FOR THE INCREMENT:   1 TOTAL ITERATIONS, OF WHICH
   0 ARE SEVERE DISCONTINUITY ITERATIONS AND  1 ARE EQUILIBRIUM ITERATIONS.

 TIME INCREMENT COMPLETED   100.    ,  FRACTION OF STEP COMPLETED  0.993    
 STEP TIME COMPLETED       4.966E+03,  TOTAL TIME COMPLETED        4.966E+03


  INCREMENT   155 STARTS. ATTEMPT NUMBER  1, TIME INCREMENT   34.0    

  NUMBER OF EQUATIONS =      4925     NUMBER OF FLOATING PT. OPERATIONS =  6.01E+07

     CHECK POINT   START OF SOLVER    

     CHECK POINT  END OF SOLVER       

       ELAPSED USER TIME (SEC)      =   0.0000    
       ELAPSED SYSTEM TIME (SEC)    =   0.0000    
       ELAPSED TOTAL CPU TIME (SEC) =   0.0000    
       ELAPSED WALLCLOCK TIME (SEC) =          0

               CONVERGENCE CHECKS FOR EQUILIBRIUM ITERATION     1


 AVERAGE HEAT FLUX                  3.617E-03   TIME AVG. HEAT FLUX    158.    
 LARGEST RESIDUAL HEAT FLUX        -4.635E-08   AT NODE       1011   DOF 11
   INSTANCE: GJSLIM-1                                                                        
 LARGEST INCREMENT OF TEMP.        -7.621E-03   AT NODE       2937   DOF 11
   INSTANCE: GJSLIM-1                                                                        
 LARGEST CORRECTION TO TEMP.        6.749E-04   AT NODE       2937   DOF 11
   INSTANCE: GJSLIM-1                                                                        
          THE HEAT FLUX EQUILIBRIUM RESPONSE WAS LINEAR IN THIS INCREMENT

 MAXIMUM NON-PRESCRIBED INCREMENT IN TEMPERATURE IS  -7.621E-03

 ITERATION SUMMARY FOR THE INCREMENT:   1 TOTAL ITERATIONS, OF WHICH
   0 ARE SEVERE DISCONTINUITY ITERATIONS AND  1 ARE EQUILIBRIUM ITERATIONS.

 TIME INCREMENT COMPLETED   34.0    ,  FRACTION OF STEP COMPLETED   1.00    
 STEP TIME COMPLETED       5.000E+03,  TOTAL TIME COMPLETED        5.000E+03


          THE ANALYSIS HAS BEEN COMPLETED



     ANALYSIS SUMMARY:
     TOTAL OF        155  INCREMENTS
                       2  CUTBACKS IN AUTOMATIC INCREMENTATION
                     205  ITERATIONS INCLUDING CONTACT ITERATIONS IF PRESENT
                     205  PASSES THROUGH THE EQUATION SOLVER OF WHICH 
                     205  INVOLVE MATRIX DECOMPOSITION, INCLUDING
                       0  DECOMPOSITION(S) OF THE MASS MATRIX
                       1  REORDERING OF EQUATIONS TO MINIMIZE WAVEFRONT
                       0  ADDITIONAL RESIDUAL EVALUATIONS FOR LINE SEARCHES
                       0  ADDITIONAL OPERATOR EVALUATIONS FOR LINE SEARCHES
                       0  WARNING MESSAGES DURING USER INPUT PROCESSING
                       0  WARNING MESSAGES DURING ANALYSIS
                       0  ANALYSIS WARNINGS ARE NUMERICAL PROBLEM MESSAGES
                       0  ANALYSIS WARNINGS ARE NEGATIVE EIGENVALUE MESSAGES
                       0  ERROR MESSAGES



     JOB TIME SUMMARY
       USER TIME (SEC)      =   15.900    
       SYSTEM TIME (SEC)    =  0.80000    
       TOTAL CPU TIME (SEC) =   16.700    
       WALLCLOCK TIME (SEC) =         17
